/*---------------------------------------------------------------------------*\
  =========                 |
  \\      /  F ield         | OpenFOAM: The Open Source CFD Toolbox
   \\    /   O peration     | Website:  https://openfoam.org
    \\  /    A nd           | Version:  12
     \\/     M anipulation  |
\*---------------------------------------------------------------------------*/
Build  : 12-86e126a7bc4d
Exec   : foamRun
Date   : Jun 15 2026
Time   : 01:29:37
Host   : "NotebookdoDan"
PID    : 162179
I/O    : uncollated
Case   : /home/danilom/OpenFOAM/danilom-12/run/GT2/RANS/SA_LRN
nProcs : 1
sigFpe : Enabling floating point exception trapping (FOAM_SIGFPE).
fileModificationChecking : Monitoring run-time modified files using timeStampMaster (fileModificationSkew 10)
allowSystemOperations : Allowing user-supplied system call operations

// * * * * * * * * * * * * * * * * * * * * * * * * * * * * * * * * * * * * * //
Create time

Create mesh for time = 0

Selecting solver incompressibleFluid
Selecting viscosity model Newtonian
Selecting turbulence model type RAS
Selecting RAS turbulence model SpalartAllmaras
RAS
{
    RASModel        SpalartAllmaras;
    turbulence      on;
    printCoeffs     on;
    sigmaNut        0.66666;
    kappa           0.41;
    Cb1             0.1355;
    Cb2             0.622;
    Cw2             0.3;
    Cw3             2;
    Cv1             7.1;
    Cs              0.3;
}

No MRF models present


SIMPLE: Convergence criteria found
        p: tolerance 1e-06
        U: tolerance 1e-06
        "(nuTilda)": tolerance 1e-06


SIMPLE: Operating solver in steady-state mode with 1 outer corrector
SIMPLE: Operating solver in SIMPLE mode



Starting time loop

    - selecting all cells
    - selected 13056 cell(s) with volume 2.33333


    - selecting all cells
    - selected 13056 cell(s) with volume 2.33333


    - selecting all cells
    - selected 13056 cell(s) with volume 2.33333


    - selecting all cells
    - selected 13056 cell(s) with volume 2.33333


    - selecting all cells
    - selected 13056 cell(s) with volume 2.33333


    - selecting all cells
    - selected 13056 cell(s) with volume 2.33333




volFieldValue mindomain_scalar write:
    min() of nuTilda = 2e-06 at location (-0.31329649 1.0023271e-06 0.5) in cell 0
    min() of nut = 1.4728506e-06 at location (-0.31329649 1.0023271e-06 0.5) in cell 0

volFieldValue mindomain_vector write:
    minMag() of U = 1 at location (-0.31329649 1.0023271e-06 0.5) in cell 0

volFieldValue maxdomain_scalar write:
    max() of nuTilda = 2e-06 at location (-0.31329649 1.0023271e-06 0.5) in cell 0
    max() of nut = 1.4728506e-06 at location (-0.31329649 1.0023271e-06 0.5) in cell 0

volFieldValue maxdomain_vector write:
    maxMag() of U = 1 at location (-0.31329649 1.0023271e-06 0.5) in cell 0

yPlus yplus_stats write:
    patch bottom y+ : min = 2.2404971, max = 2.2404971, average = 2.2404971

Time = 1s

DILUPBiCGStab:  Solving for Ux, Initial residual = 1, Final residual = 4.8497342e-11, No Iterations 3
DILUPBiCGStab:  Solving for Uy, Initial residual = 1, Final residual = 2.8957267e-12, No Iterations 3
DICPCG:  Solving for p, Initial residual = 1, Final residual = 0.0078780384, No Iterations 95
DICPCG:  Solving for p, Initial residual = 1.9193864e-05, Final residual = 1.8917868e-07, No Iterations 20
DICPCG:  Solving for p, Initial residual = 1.8918206e-07, Final residual = 9.0504768e-09, No Iterations 28
time step continuity errors : sum local = 3.1488817e-12, global = -4.3983656e-13, cumulative = -4.3983656e-13
Selecting patchDistMethod meshWave
DILUPBiCGStab:  Solving for nuTilda, Initial residual = 1, Final residual = 8.4753139e-09, No Iterations 3
ExecutionTime = 0.333931 s  ClockTime = 0 s



volFieldValue mindomain_scalar write:
    min() of nuTilda = 4.331045e-07 at location (1.9785208 1.0023271e-06 0.5) in cell 135
    min() of nut = 3.189491e-07 at location (1.9785208 1.0023271e-06 0.5) in cell 135

volFieldValue mindomain_vector write:
    minMag() of U = 0.67521849 at location (1.9785208 1.0023271e-06 0.5) in cell 135

volFieldValue maxdomain_scalar write:
    max() of nuTilda = 2.0000047e-06 at location (-0.11114656 0.0014661282 0.5) in cell 5720
    max() of nut = 1.472854e-06 at location (-0.11114656 0.0014661282 0.5) in cell 5720

volFieldValue maxdomain_vector write:
    maxMag() of U = 1.0001013 at location (0.0060340464 0.0018713042 0.5) in cell 6009

yPlus yplus_stats write:
    patch bottom y+ : min = 1.8403562, max = 1.8410367, average = 1.840386

Time = 2s

DILUPBiCGStab:  Solving for Ux, Initial residual = 0.24727948, Final residual = 4.5740652e-09, No Iterations 3
DILUPBiCGStab:  Solving for Uy, Initial residual = 0.17951886, Final residual = 3.9321819e-09, No Iterations 7
DICPCG:  Solving for p, Initial residual = 0.01669368, Final residual = 0.00014883489, No Iterations 87
DICPCG:  Solving for p, Initial residual = 0.00012646341, Final residual = 1.2088696e-06, No Iterations 41
DICPCG:  Solving for p, Initial residual = 1.2089241e-06, Final residual = 1.1463514e-08, No Iterations 77
time step continuity errors : sum local = 4.7674438e-12, global = 2.3141897e-13, cumulative = -2.0841759e-13
DILUPBiCGStab:  Solving for nuTilda, Initial residual = 0.13667404, Final residual = 1.4790967e-09, No Iterations 3
ExecutionTime = 0.472946 s  ClockTime = 0 s



volFieldValue mindomain_scalar write:
    min() of nuTilda = 1.2515142e-07 at location (0.0060340464 1.0023271e-06 0.5) in cell 25
    min() of nut = 3.4531187e-09 at location (0.0060340464 1.0023271e-06 0.5) in cell 25

volFieldValue mindomain_vector write:
    minMag() of U = 0.39863157 at location (0.0060340464 1.0023271e-06 0.5) in cell 25

volFieldValue maxdomain_scalar write:
    max() of nuTilda = 2.0000207e-06 at location (-0.064442274 0.0011486725 0.5) in cell 5452
    max() of nut = 1.4728677e-06 at location (-0.074127893 0.0012977308 0.5) in cell 5587

volFieldValue maxdomain_vector write:
    maxMag() of U = 1.0002214 at location (0.0060340464 0.0016563743 0.5) in cell 5873

yPlus yplus_stats write:
    patch bottom y+ : min = 1.4137044, max = 1.4164563, average = 1.4138613

Time = 3s

DILUPBiCGStab:  Solving for Ux, Initial residual = 0.10704448, Final residual = 5.0946294e-09, No Iterations 3
DILUPBiCGStab:  Solving for Uy, Initial residual = 0.12566627, Final residual = 2.6485551e-09, No Iterations 7
DICPCG:  Solving for p, Initial residual = 0.019519365, Final residual = 0.00017755374, No Iterations 88
DICPCG:  Solving for p, Initial residual = 0.00018736141, Final residual = 1.6061169e-06, No Iterations 71
DICPCG:  Solving for p, Initial residual = 1.6070291e-06, Final residual = 1.5670426e-08, No Iterations 77
time step continuity errors : sum local = 6.2927168e-12, global = 1.2455572e-13, cumulative = -8.3861868e-14
DILUPBiCGStab:  Solving for nuTilda, Initial residual = 0.064932507, Final residual = 1.9241943e-09, No Iterations 3
ExecutionTime = 0.613601 s  ClockTime = 0 s



volFieldValue mindomain_scalar write:
    min() of nuTilda = 6.0621506e-08 at location (0.0060340464 1.0023271e-06 0.5) in cell 25
    min() of nut = 4.1473605e-11 at location (0.0060340464 1.0023271e-06 0.5) in cell 25

volFieldValue mindomain_vector write:
    minMag() of U = 0.18213547 at location (0.0060340464 1.0023271e-06 0.5) in cell 25

volFieldValue maxdomain_scalar write:
    max() of nuTilda = 2.0000489e-06 at location (-0.04112468 0.001016732 0.5) in cell 5319
    max() of nut = 1.4728973e-06 at location (-0.048073728 0.001016732 0.5) in cell 5318

volFieldValue maxdomain_vector write:
    maxMag() of U = 1.0003355 at location (0.0060340464 0.0016563743 0.5) in cell 5873

yPlus yplus_stats write:
    patch bottom y+ : min = 0.9554581, max = 0.96180497, average = 0.95603084

Time = 4s

DILUPBiCGStab:  Solving for Ux, Initial residual = 0.039596933, Final residual = 5.1109093e-09, No Iterations 3
DILUPBiCGStab:  Solving for Uy, Initial residual = 0.099148228, Final residual = 6.2799286e-09, No Iterations 7
DICPCG:  Solving for p, Initial residual = 0.022214953, Final residual = 0.00022192204, No Iterations 57
DICPCG:  Solving for p, Initial residual = 0.00022703159, Final residual = 2.160133e-06, No Iterations 75
DICPCG:  Solving for p, Initial residual = 2.1698141e-06, Final residual = 2.0392781e-08, No Iterations 29
time step continuity errors : sum local = 8.1290575e-12, global = 4.8954503e-13, cumulative = 4.0568316e-13
DILUPBiCGStab:  Solving for nuTilda, Initial residual = 0.04325374, Final residual = 1.9369765e-09, No Iterations 3
ExecutionTime = 0.753664 s  ClockTime = 0 s



volFieldValue mindomain_scalar write:
    min() of nuTilda = 5.6193946e-08 at location (0.0060340464 1.0023271e-06 0.5) in cell 25
    min() of nut = 4.3719066e-12 at location (0.0060340464 1.0023271e-06 0.5) in cell 25

volFieldValue mindomain_vector write:
    minMag() of U = 0.11751497 at location (0.0060340464 1.0023271e-06 0.5) in cell 25

volFieldValue maxdomain_scalar write:
    max() of nuTilda = 2.0000913e-06 at location (-0.029130306 0.00089994316 0.5) in cell 5185
    max() of nut = 1.4729441e-06 at location (-0.034844242 0.00089994316 0.5) in cell 5184

volFieldValue maxdomain_vector write:
    maxMag() of U = 1.0004483 at location (0.0060340464 0.0014661282 0.5) in cell 5737

yPlus yplus_stats write:
    patch bottom y+ : min = 0.7674479, max = 0.77683493, average = 0.7683407

Time = 5s

DILUPBiCGStab:  Solving for Ux, Initial residual = 0.022417308, Final residual = 5.5430774e-09, No Iterations 3
DILUPBiCGStab:  Solving for Uy, Initial residual = 0.081509883, Final residual = 3.1890718e-09, No Iterations 7
DICPCG:  Solving for p, Initial residual = 0.023524374, Final residual = 0.00020850342, No Iterations 83
DICPCG:  Solving for p, Initial residual = 0.00019922316, Final residual = 1.9560357e-06, No Iterations 78
DICPCG:  Solving for p, Initial residual = 1.955243e-06, Final residual = 1.5552911e-08, No Iterations 76
time step continuity errors : sum local = 6.6187696e-12, global = -5.7045198e-13, cumulative = -1.6476882e-13
DILUPBiCGStab:  Solving for nuTilda, Initial residual = 0.02875415, Final residual = 1.6426736e-09, No Iterations 3
ExecutionTime = 0.914468 s  ClockTime = 1 s



volFieldValue mindomain_scalar write:
    min() of nuTilda = 4.9504805e-08 at location (0.0060340464 1.0023271e-06 0.5) in cell 25
    min() of nut = 3.0677785e-12 at location (0.0060340464 1.0023271e-06 0.5) in cell 25

volFieldValue mindomain_vector write:
    minMag() of U = 0.090470581 at location (0.0060340464 1.0023271e-06 0.5) in cell 25

volFieldValue maxdomain_scalar write:
    max() of nuTilda = 2.00015e-06 at location (-0.023889973 0.00079656552 0.5) in cell 5050
    max() of nut = 1.4730122e-06 at location (-0.023889973 0.00079656552 0.5) in cell 5050

volFieldValue maxdomain_vector write:
    maxMag() of U = 1.0005659 at location (0.0060340464 0.0016563743 0.5) in cell 5873

yPlus yplus_stats write:
    patch bottom y+ : min = 0.67336703, max = 0.68584349, average = 0.67451583

Time = 6s

DILUPBiCGStab:  Solving for Ux, Initial residual = 0.015562806, Final residual = 6.4482492e-09, No Iterations 3
DILUPBiCGStab:  Solving for Uy, Initial residual = 0.07116125, Final residual = 8.962997e-09, No Iterations 7
DICPCG:  Solving for p, Initial residual = 0.023639496, Final residual = 0.00020502011, No Iterations 82
DICPCG:  Solving for p, Initial residual = 0.00019100522, Final residual = 1.6739421e-06, No Iterations 64
DICPCG:  Solving for p, Initial residual = 1.6738027e-06, Final residual = 1.5351543e-08, No Iterations 76
time step continuity errors : sum local = 7.1461651e-12, global = -1.1104067e-13, cumulative = -2.7580949e-13
DILUPBiCGStab:  Solving for nuTilda, Initial residual = 0.019669187, Final residual = 1.4041179e-09, No Iterations 3
ExecutionTime = 1.040102 s  ClockTime = 1 s



volFieldValue mindomain_scalar write:
    min() of nuTilda = 4.5683923e-08 at location (0.0060340464 1.0023271e-06 0.5) in cell 25
    min() of nut = 1.9356286e-12 at location (0.0060340464 1.0023271e-06 0.5) in cell 25

volFieldValue mindomain_vector write:
    minMag() of U = 0.074769289 at location (0.0060340464 1.0023271e-06 0.5) in cell 25

volFieldValue maxdomain_scalar write:
    max() of nuTilda = 2.0002375e-06 at location (-0.014495643 0.00070505852 0.5) in cell 4916
    max() of nut = 1.473106e-06 at location (-0.014495643 0.00070505852 0.5) in cell 4916

volFieldValue maxdomain_vector write:
    maxMag() of U = 1.0006739 at location (0.0060340464 0.0018713042 0.5) in cell 6009

yPlus yplus_stats write:
    patch bottom y+ : min = 0.61214972, max = 0.62798854, average = 0.6135927

Time = 7s

DILUPBiCGStab:  Solving for Ux, Initial residual = 0.011762725, Final residual = 7.7073462e-09, No Iterations 3
DILUPBiCGStab:  Solving for Uy, Initial residual = 0.065026601, Final residual = 7.7616414e-09, No Iterations 7
DICPCG:  Solving for p, Initial residual = 0.023229211, Final residual = 0.00021478482, No Iterations 83
DICPCG:  Solving for p, Initial residual = 0.00019754365, Final residual = 1.7271466e-06, No Iterations 79
DICPCG:  Solving for p, Initial residual = 1.7261987e-06, Final residual = 1.6990084e-08, No Iterations 76
time step continuity errors : sum local = 8.7586107e-12, global = -3.856857e-13, cumulative = -6.6149519e-13
DILUPBiCGStab:  Solving for nuTilda, Initial residual = 0.013559873, Final residual = 9.2321683e-09, No Iterations 3
ExecutionTime = 1.174828 s  ClockTime = 1 s



volFieldValue mindomain_scalar write:
    min() of nuTilda = 4.2563042e-08 at location (0.0060340464 1.0023271e-06 0.5) in cell 25
    min() of nut = 1.4172398e-12 at location (0.0060340464 1.0023271e-06 0.5) in cell 25

volFieldValue mindomain_vector write:
    minMag() of U = 0.064054032 at location (0.0060340464 1.0023271e-06 0.5) in cell 25

volFieldValue maxdomain_scalar write:
    max() of nuTilda = 2.0004388e-06 at location (-0.0060478307 0.00055235838 0.5) in cell 4646
    max() of nut = 1.4733091e-06 at location (-0.0060478307 0.00055235838 0.5) in cell 4646

volFieldValue maxdomain_vector write:
    maxMag() of U = 1.0007562 at location (0.0060340464 0.0021141207 0.5) in cell 6145

yPlus yplus_stats write:
    patch bottom y+ : min = 0.56658875, max = 0.58590194, average = 0.56828109

Time = 8s

DILUPBiCGStab:  Solving for Ux, Initial residual = 0.0093015795, Final residual = 9.6996737e-09, No Iterations 3
DILUPBiCGStab:  Solving for Uy, Initial residual = 0.060155876, Final residual = 7.3847786e-09, No Iterations 7
DICPCG:  Solving for p, Initial residual = 0.022158088, Final residual = 0.00017694898, No Iterations 88
DICPCG:  Solving for p, Initial residual = 0.00016133785, Final residual = 1.5822401e-06, No Iterations 46
DICPCG:  Solving for p, Initial residual = 1.5820987e-06, Final residual = 1.541061e-08, No Iterations 62
time step continuity errors : sum local = 8.8660829e-12, global = 3.3079513e-13, cumulative = -3.3070006e-13
DILUPBiCGStab:  Solving for nuTilda, Initial residual = 0.0095021085, Final residual = 7.9388417e-09, No Iterations 3
ExecutionTime = 1.306368 s  ClockTime = 1 s



volFieldValue mindomain_scalar write:
    min() of nuTilda = 4.003648e-08 at location (0.0060340464 1.0023271e-06 0.5) in cell 25
    min() of nut = 1.0781449e-12 at location (0.0060340464 1.0023271e-06 0.5) in cell 25

volFieldValue mindomain_vector write:
    minMag() of U = 0.056115846 at location (0.0060340464 1.0023271e-06 0.5) in cell 25

volFieldValue maxdomain_scalar write:
    max() of nuTilda = 2.0006601e-06 at location (-0.0060478307 0.00055235838 0.5) in cell 4646
    max() of nut = 1.4735923e-06 at location (-0.0060478307 0.00055235838 0.5) in cell 4646

volFieldValue maxdomain_vector write:
    maxMag() of U = 1.0008812 at location (0.0060340464 0.0021141207 0.5) in cell 6145

yPlus yplus_stats write:
    patch bottom y+ : min = 0.53031823, max = 0.55319227, average = 0.53219327

Time = 9s

DILUPBiCGStab:  Solving for Ux, Initial residual = 0.0075745717, Final residual = 3.4540485e-09, No Iterations 3
DILUPBiCGStab:  Solving for Uy, Initial residual = 0.056031335, Final residual = 9.5730078e-09, No Iterations 7
DICPCG:  Solving for p, Initial residual = 0.020932481, Final residual = 0.0001693412, No Iterations 88
DICPCG:  Solving for p, Initial residual = 0.0001538346, Final residual = 1.4579984e-06, No Iterations 46
DICPCG:  Solving for p, Initial residual = 1.4578819e-06, Final residual = 1.378897e-08, No Iterations 64
time step continuity errors : sum local = 8.8818886e-12, global = 1.0827382e-12, cumulative = 7.5203818e-13
DILUPBiCGStab:  Solving for nuTilda, Initial residual = 0.0066581269, Final residual = 6.8542702e-09, No Iterations 3
ExecutionTime = 1.422124 s  ClockTime = 1 s



volFieldValue mindomain_scalar write:
    min() of nuTilda = 3.788083e-08 at location (0.0060340464 1.0023271e-06 0.5) in cell 25
    min() of nut = 8.4900917e-13 at location (0.0060340464 1.0023271e-06 0.5) in cell 25

volFieldValue mindomain_vector write:
    minMag() of U = 0.049943201 at location (0.0060340464 1.0023271e-06 0.5) in cell 25

volFieldValue maxdomain_scalar write:
    max() of nuTilda = 2.0008903e-06 at location (-0.0060478307 0.00055235838 0.5) in cell 4646
    max() of nut = 1.4738906e-06 at location (-0.0060478307 0.00055235838 0.5) in cell 4646

volFieldValue maxdomain_vector write:
    maxMag() of U = 1.0009383 at location (0.0060340464 0.0021141207 0.5) in cell 6145

yPlus yplus_stats write:
    patch bottom y+ : min = 0.50030095, max = 0.52682257, average = 0.50228244

Time = 10s

DILUPBiCGStab:  Solving for Ux, Initial residual = 0.006302054, Final residual = 4.0304923e-09, No Iterations 3
DILUPBiCGStab:  Solving for Uy, Initial residual = 0.052451918, Final residual = 9.6798449e-09, No Iterations 7
DICPCG:  Solving for p, Initial residual = 0.019689146, Final residual = 0.00015617892, No Iterations 88
DICPCG:  Solving for p, Initial residual = 0.0001418519, Final residual = 1.3304508e-06, No Iterations 46
DICPCG:  Solving for p, Initial residual = 1.3303503e-06, Final residual = 1.1590057e-08, No Iterations 72
time step continuity errors : sum local = 8.3522308e-12, global = 1.8659181e-13, cumulative = 9.3862999e-13
DILUPBiCGStab:  Solving for nuTilda, Initial residual = 0.0045468984, Final residual = 5.9496981e-09, No Iterations 3
ExecutionTime = 1.556823 s  ClockTime = 1 s



volFieldValue mindomain_scalar write:
    min() of nuTilda = 3.6042712e-08 at location (0.0060340464 1.0023271e-06 0.5) in cell 25
    min() of nut = 6.8423085e-13 at location (0.0060340464 1.0023271e-06 0.5) in cell 25

volFieldValue mindomain_vector write:
    minMag() of U = 0.044984045 at location (0.0060340464 1.0023271e-06 0.5) in cell 25

volFieldValue maxdomain_scalar write:
    max() of nuTilda = 2.0011362e-06 at location (-0.0060478307 0.00048888965 0.5) in cell 4510
    max() of nut = 1.4742053e-06 at location (-0.0060478307 0.00048888965 0.5) in cell 4510

volFieldValue maxdomain_vector write:
    maxMag() of U = 1.0010476 at location (0.0060340464 0.0023884425 0.5) in cell 6281

yPlus yplus_stats write:
    patch bottom y+ : min = 0.47481222, max = 0.50504793, average = 0.47681486

Time = 11s

DILUPBiCGStab:  Solving for Ux, Initial residual = 0.0053321544, Final residual = 4.4970458e-09, No Iterations 3
DILUPBiCGStab:  Solving for Uy, Initial residual = 0.049124606, Final residual = 7.8584628e-09, No Iterations 7
DICPCG:  Solving for p, Initial residual = 0.018410803, Final residual = 0.00014303938, No Iterations 88
DICPCG:  Solving for p, Initial residual = 0.00013012318, Final residual = 1.2791938e-06, No Iterations 45
DICPCG:  Solving for p, Initial residual = 1.2791001e-06, Final residual = 1.225417e-08, No Iterations 78
time step continuity errors : sum local = 9.8530591e-12, global = 3.1149965e-13, cumulative = 1.2501296e-12
DILUPBiCGStab:  Solving for nuTilda, Initial residual = 0.0029746678, Final residual = 5.1892554e-09, No Iterations 3
ExecutionTime = 1.691363 s  ClockTime = 1 s



volFieldValue mindomain_scalar write:
    min() of nuTilda = 3.4440284e-08 at location (0.0060340464 1.0023271e-06 0.5) in cell 25
    min() of nut = 5.6317969e-13 at location (0.0060340464 1.0023271e-06 0.5) in cell 25

volFieldValue mindomain_vector write:
    minMag() of U = 0.04090705 at location (0.0060340464 1.0023271e-06 0.5) in cell 25

volFieldValue maxdomain_scalar write:
    max() of nuTilda = 2.0013928e-06 at location (-0.0060478307 0.00048888965 0.5) in cell 4510
    max() of nut = 1.4745379e-06 at location (-0.0060478307 0.00048888965 0.5) in cell 4510

volFieldValue maxdomain_vector write:
    maxMag() of U = 1.0011608 at location (0.0060340464 0.0023884425 0.5) in cell 6281

yPlus yplus_stats write:
    patch bottom y+ : min = 0.45278427, max = 0.48679843, average = 0.45471323

Time = 12s

DILUPBiCGStab:  Solving for Ux, Initial residual = 0.0045742198, Final residual = 4.8078901e-09, No Iterations 3
DILUPBiCGStab:  Solving for Uy, Initial residual = 0.045796082, Final residual = 6.7442551e-09, No Iterations 7
DICPCG:  Solving for p, Initial residual = 0.017069745, Final residual = 0.00013025281, No Iterations 88
DICPCG:  Solving for p, Initial residual = 0.00011882221, Final residual = 1.1254844e-06, No Iterations 45
DICPCG:  Solving for p, Initial residual = 1.125407e-06, Final residual = 1.0812672e-08, No Iterations 78
time step continuity errors : sum local = 9.6625395e-12, global = 1.7075624e-13, cumulative = 1.4208859e-12
DILUPBiCGStab:  Solving for nuTilda, Initial residual = 0.0018367438, Final residual = 4.4911365e-09, No Iterations 3
ExecutionTime = 1.822759 s  ClockTime = 2 s



volFieldValue mindomain_scalar write:
    min() of nuTilda = 3.3032115e-08 at location (0.0060340464 1.0023271e-06 0.5) in cell 25
    min() of nut = 4.7126513e-13 at location (0.0060340464 1.0023271e-06 0.5) in cell 25

volFieldValue mindomain_vector write:
    minMag() of U = 0.037496395 at location (0.0060340464 1.0023271e-06 0.5) in cell 25

volFieldValue maxdomain_scalar write:
    max() of nuTilda = 2.0016533e-06 at location (-0.0060478307 0.00048888965 0.5) in cell 4510
    max() of nut = 1.4748791e-06 at location (-0.0060478307 0.00048888965 0.5) in cell 4510

volFieldValue maxdomain_vector write:
    maxMag() of U = 1.0012458 at location (0.0060340464 0.0023884425 0.5) in cell 6281

yPlus yplus_stats write:
    patch bottom y+ : min = 0.4334976, max = 0.47134226, average = 0.43524847

Time = 13s

DILUPBiCGStab:  Solving for Ux, Initial residual = 0.003970218, Final residual = 5.0238908e-09, No Iterations 3
DILUPBiCGStab:  Solving for Uy, Initial residual = 0.042716834, Final residual = 5.4485771e-09, No Iterations 7
DICPCG:  Solving for p, Initial residual = 0.015639995, Final residual = 0.00012042331, No Iterations 88
DICPCG:  Solving for p, Initial residual = 0.00011022073, Final residual = 1.0446876e-06, No Iterations 45
DICPCG:  Solving for p, Initial residual = 1.0446208e-06, Final residual = 9.5377291e-09, No Iterations 78
time step continuity errors : sum local = 9.4306766e-12, global = 1.8445971e-13, cumulative = 1.6053456e-12
DILUPBiCGStab:  Solving for nuTilda, Initial residual = 0.0011076579, Final residual = 3.6699803e-09, No Iterations 3
ExecutionTime = 1.944377 s  ClockTime = 2 s



volFieldValue mindomain_scalar write:
    min() of nuTilda = 3.1784555e-08 at location (0.0060340464 1.0023271e-06 0.5) in cell 25
    min() of nut = 4.0008731e-13 at location (0.0060340464 1.0023271e-06 0.5) in cell 25

volFieldValue mindomain_vector write:
    minMag() of U = 0.03460374 at location (0.0060340464 1.0023271e-06 0.5) in cell 25

volFieldValue maxdomain_scalar write:
    max() of nuTilda = 2.0019111e-06 at location (-0.0060478307 0.00048888965 0.5) in cell 4510
    max() of nut = 1.4752206e-06 at location (-0.0060478307 0.00048888965 0.5) in cell 4510

volFieldValue maxdomain_vector write:
    maxMag() of U = 1.0013173 at location (0.0060340464 0.0023884425 0.5) in cell 6281

yPlus yplus_stats write:
    patch bottom y+ : min = 0.41644074, max = 0.45815506, average = 0.4179026

Time = 14s

DILUPBiCGStab:  Solving for Ux, Initial residual = 0.0034810399, Final residual = 5.1709617e-09, No Iterations 3
DILUPBiCGStab:  Solving for Uy, Initial residual = 0.039852672, Final residual = 4.365557e-09, No Iterations 7
DICPCG:  Solving for p, Initial residual = 0.014179317, Final residual = 0.00011048945, No Iterations 88
DICPCG:  Solving for p, Initial residual = 0.00010150957, Final residual = 9.783992e-07, No Iterations 45
DICPCG:  Solving for p, Initial residual = 9.7833958e-07, Final residual = 8.9845091e-09, No Iterations 77
time step continuity errors : sum local = 9.7822351e-12, global = 1.9471253e-13, cumulative = 1.8000581e-12
DILUPBiCGStab:  Solving for nuTilda, Initial residual = 0.00074093018, Final residual = 2.6958041e-09, No Iterations 3
ExecutionTime = 2.06013 s  ClockTime = 2 s



volFieldValue mindomain_scalar write:
    min() of nuTilda = 3.0641915e-08 at location (1.0763929 1.0023271e-06 0.5) in cell 114
    min() of nut = 3.4397344e-13 at location (0.0060340464 1.0023271e-06 0.5) in cell 25

volFieldValue mindomain_vector write:
    minMag() of U = 0.032122627 at location (0.0060340464 1.0023271e-06 0.5) in cell 25

volFieldValue maxdomain_scalar write:
    max() of nuTilda = 2.0021672e-06 at location (-0.0060478307 0.00048888965 0.5) in cell 4510
    max() of nut = 1.4755593e-06 at location (-0.0060478307 0.00048888965 0.5) in cell 4510

volFieldValue maxdomain_vector write:
    maxMag() of U = 1.00138 at location (0.0060340464 0.0023884425 0.5) in cell 6281

yPlus yplus_stats write:
    patch bottom y+ : min = 0.40123333, max = 0.44684864, average = 0.40229378

Time = 15s

DILUPBiCGStab:  Solving for Ux, Initial residual = 0.003079248, Final residual = 5.2860873e-09, No Iterations 3
DILUPBiCGStab:  Solving for Uy, Initial residual = 0.037247964, Final residual = 3.4912573e-09, No Iterations 7
DICPCG:  Solving for p, Initial residual = 0.012855996, Final residual = 0.0001002481, No Iterations 88
DICPCG:  Solving for p, Initial residual = 9.2472735e-05, Final residual = 8.8895039e-07, No Iterations 45
DICPCG:  Solving for p, Initial residual = 8.8889719e-07, Final residual = 8.9931216e-09, No Iterations 76
time step continuity errors : sum local = 1.0727673e-11, global = 3.3621938e-13, cumulative = 2.1362775e-12
DILUPBiCGStab:  Solving for nuTilda, Initial residual = 0.00066961905, Final residual = 2.7419245e-09, No Iterations 3
ExecutionTime = 2.182677 s  ClockTime = 2 s



volFieldValue mindomain_scalar write:
    min() of nuTilda = 2.9588512e-08 at location (1.9785208 1.0023271e-06 0.5) in cell 135
    min() of nut = 2.9730448e-13 at location (1.9785208 1.0023271e-06 0.5) in cell 135

volFieldValue mindomain_vector write:
    minMag() of U = 0.029958102 at location (0.010095216 1.0023271e-06 0.5) in cell 26

volFieldValue maxdomain_scalar write:
    max() of nuTilda = 2.0024195e-06 at location (-0.0060478307 0.00048888965 0.5) in cell 4510
    max() of nut = 1.4758943e-06 at location (-0.0060478307 0.00048888965 0.5) in cell 4510

volFieldValue maxdomain_vector write:
    maxMag() of U = 1.0014372 at location (0.0060340464 0.0023884425 0.5) in cell 6281

yPlus yplus_stats write:
    patch bottom y+ : min = 0.38747925, max = 0.43712748, average = 0.38813267

Time = 16s

DILUPBiCGStab:  Solving for Ux, Initial residual = 0.0027449461, Final residual = 5.348278e-09, No Iterations 3
DILUPBiCGStab:  Solving for Uy, Initial residual = 0.03487253, Final residual = 2.8347542e-09, No Iterations 7
DICPCG:  Solving for p, Initial residual = 0.0116486, Final residual = 8.9894456e-05, No Iterations 88
DICPCG:  Solving for p, Initial residual = 8.323867e-05, Final residual = 8.0263144e-07, No Iterations 45
DICPCG:  Solving for p, Initial residual = 8.0258646e-07, Final residual = 7.5374757e-09, No Iterations 76
time step continuity errors : sum local = 9.8030298e-12, global = 2.7081046e-13, cumulative = 2.407088e-12
DILUPBiCGStab:  Solving for nuTilda, Initial residual = 0.0006663679, Final residual = 2.7492028e-09, No Iterations 3
ExecutionTime = 2.317317 s  ClockTime = 2 s



volFieldValue mindomain_scalar write:
    min() of nuTilda = 2.8624816e-08 at location (1.9785208 1.0023271e-06 0.5) in cell 135
    min() of nut = 2.5896621e-13 at location (1.9785208 1.0023271e-06 0.5) in cell 135

volFieldValue mindomain_vector write:
    minMag() of U = 0.027988851 at location (1.9785208 1.0023271e-06 0.5) in cell 135

volFieldValue maxdomain_scalar write:
    max() of nuTilda = 2.0027381e-06 at location (-0.0020050773 0.00038297165 0.5) in cell 4239
    max() of nut = 1.4762321e-06 at location (-0.0020050773 0.00038297165 0.5) in cell 4239

volFieldValue maxdomain_vector write:
    maxMag() of U = 1.0014854 at location (0.0060340464 0.0023884425 0.5) in cell 6281

yPlus yplus_stats write:
    patch bottom y+ : min = 0.37452747, max = 0.42875958, average = 0.37519535

Time = 17s

DILUPBiCGStab:  Solving for Ux, Initial residual = 0.0024635619, Final residual = 5.3954225e-09, No Iterations 3
DILUPBiCGStab:  Solving for Uy, Initial residual = 0.032702603, Final residual = 8.9355438e-09, No Iterations 6
DICPCG:  Solving for p, Initial residual = 0.010538094, Final residual = 8.0181534e-05, No Iterations 88
DICPCG:  Solving for p, Initial residual = 7.4507354e-05, Final residual = 7.0702267e-07, No Iterations 45
DICPCG:  Solving for p, Initial residual = 7.069865e-07, Final residual = 9.4521448e-09, No Iterations 75
time step continuity errors : sum local = 1.3342714e-11, global = 4.9903389e-13, cumulative = 2.9061219e-12
DILUPBiCGStab:  Solving for nuTilda, Initial residual = 0.0006836253, Final residual = 2.5070062e-09, No Iterations 3
ExecutionTime = 2.415209 s  ClockTime = 2 s



volFieldValue mindomain_scalar write:
    min() of nuTilda = 2.7738396e-08 at location (1.9785208 1.0023271e-06 0.5) in cell 135
    min() of nut = 2.2721703e-13 at location (1.9785208 1.0023271e-06 0.5) in cell 135

volFieldValue mindomain_vector write:
    minMag() of U = 0.026229888 at location (1.9785208 1.0023271e-06 0.5) in cell 135

volFieldValue maxdomain_scalar write:
    max() of nuTilda = 2.0031438e-06 at location (-0.0020050773 0.00038297165 0.5) in cell 4239
    max() of nut = 1.47676e-06 at location (-0.0020050773 0.00038297165 0.5) in cell 4239

volFieldValue maxdomain_vector write:
    maxMag() of U = 1.0015258 at location (0.0060340464 0.0023884425 0.5) in cell 6281

yPlus yplus_stats write:
    patch bottom y+ : min = 0.3625678, max = 0.42155586, average = 0.36330554

Time = 18s

DILUPBiCGStab:  Solving for Ux, Initial residual = 0.0022242972, Final residual = 5.4353608e-09, No Iterations 3
DILUPBiCGStab:  Solving for Uy, Initial residual = 0.030740541, Final residual = 6.5146405e-09, No Iterations 6
DICPCG:  Solving for p, Initial residual = 0.009602806, Final residual = 7.1315776e-05, No Iterations 88
DICPCG:  Solving for p, Initial residual = 6.6478728e-05, Final residual = 6.1056398e-07, No Iterations 45
DICPCG:  Solving for p, Initial residual = 6.1053562e-07, Final residual = 8.3086617e-09, No Iterations 75
time step continuity errors : sum local = 1.2679162e-11, global = 2.8463812e-13, cumulative = 3.19076e-12
DILUPBiCGStab:  Solving for nuTilda, Initial residual = 0.00070743262, Final residual = 2.3581829e-09, No Iterations 3
ExecutionTime = 2.521397 s  ClockTime = 2 s



volFieldValue mindomain_scalar write:
    min() of nuTilda = 2.6919173e-08 at location (1.9785208 1.0023271e-06 0.5) in cell 135
    min() of nut = 2.0064923e-13 at location (1.9785208 1.0023271e-06 0.5) in cell 135

volFieldValue mindomain_vector write:
    minMag() of U = 0.024654333 at location (1.9785208 1.0023271e-06 0.5) in cell 135

volFieldValue maxdomain_scalar write:
    max() of nuTilda = 2.0035761e-06 at location (-0.0020050773 0.00038297165 0.5) in cell 4239
    max() of nut = 1.4773145e-06 at location (-0.0020050773 0.00038297165 0.5) in cell 4239

volFieldValue maxdomain_vector write:
    maxMag() of U = 1.0015592 at location (0.0060340464 0.0023884425 0.5) in cell 6281

yPlus yplus_stats write:
    patch bottom y+ : min = 0.35150987, max = 0.41535699, average = 0.35232237

Time = 19s

DILUPBiCGStab:  Solving for Ux, Initial residual = 0.0020189642, Final residual = 5.4443218e-09, No Iterations 3
DILUPBiCGStab:  Solving for Uy, Initial residual = 0.028963161, Final residual = 5.1250368e-09, No Iterations 6
DICPCG:  Solving for p, Initial residual = 0.008817867, Final residual = 8.5459976e-05, No Iterations 87
DICPCG:  Solving for p, Initial residual = 7.9888704e-05, Final residual = 7.9281514e-07, No Iterations 45
DICPCG:  Solving for p, Initial residual = 7.9277041e-07, Final residual = 9.9054909e-09, No Iterations 75
time step continuity errors : sum local = 1.6283366e-11, global = -2.1006804e-13, cumulative = 2.9806919e-12
DILUPBiCGStab:  Solving for nuTilda, Initial residual = 0.00073641437, Final residual = 2.7904449e-09, No Iterations 3
ExecutionTime = 2.641901 s  ClockTime = 2 s



volFieldValue mindomain_scalar write:
    min() of nuTilda = 2.6158877e-08 at location (1.9785208 1.0023271e-06 0.5) in cell 135
    min() of nut = 1.782117e-13 at location (1.9785208 1.0023271e-06 0.5) in cell 135

volFieldValue mindomain_vector write:
    minMag() of U = 0.023234677 at location (1.9785208 1.0023271e-06 0.5) in cell 135

volFieldValue maxdomain_scalar write:
    max() of nuTilda = 2.0040259e-06 at location (-0.0020050773 0.00038297165 0.5) in cell 4239
    max() of nut = 1.4778974e-06 at location (-0.0020050773 0.00038297165 0.5) in cell 4239

volFieldValue maxdomain_vector write:
    maxMag() of U = 1.0015837 at location (0.0060340464 0.0023884425 0.5) in cell 6281

yPlus yplus_stats write:
    patch bottom y+ : min = 0.34123936, max = 0.41002789, average = 0.34213188

Time = 20s

DILUPBiCGStab:  Solving for Ux, Initial residual = 0.0018413287, Final residual = 5.4130891e-09, No Iterations 3
DILUPBiCGStab:  Solving for Uy, Initial residual = 0.027352257, Final residual = 4.1974888e-09, No Iterations 6
DICPCG:  Solving for p, Initial residual = 0.0080993335, Final residual = 7.3787868e-05, No Iterations 87
DICPCG:  Solving for p, Initial residual = 6.914753e-05, Final residual = 6.8228526e-07, No Iterations 42
DICPCG:  Solving for p, Initial residual = 6.8225073e-07, Final residual = 9.336127e-09, No Iterations 71
time step continuity errors : sum local = 1.6481141e-11, global = 6.523887e-13, cumulative = 3.6330806e-12
DILUPBiCGStab:  Solving for nuTilda, Initial residual = 0.00077091394, Final residual = 6.1313115e-09, No Iterations 3
ExecutionTime = 2.754604 s  ClockTime = 3 s



volFieldValue mindomain_scalar write:
    min() of nuTilda = 2.5450664e-08 at location (1.9785208 1.0023271e-06 0.5) in cell 135
    min() of nut = 1.5910677e-13 at location (1.9785208 1.0023271e-06 0.5) in cell 135

volFieldValue mindomain_vector write:
    minMag() of U = 0.021948844 at location (1.9785208 1.0023271e-06 0.5) in cell 135

volFieldValue maxdomain_scalar write:
    max() of nuTilda = 2.0044732e-06 at location (-0.0020050773 0.00038297165 0.5) in cell 4239
    max() of nut = 1.4784886e-06 at location (-0.0020050773 0.00038297165 0.5) in cell 4239

volFieldValue maxdomain_vector write:
    maxMag() of U = 1.0015979 at location (0.0060340464 0.0023884425 0.5) in cell 6281

yPlus yplus_stats write:
    patch bottom y+ : min = 0.33166263, max = 0.40545098, average = 0.33264082

Time = 21s

DILUPBiCGStab:  Solving for Ux, Initial residual = 0.0016865934, Final residual = 5.3328608e-09, No Iterations 3
DILUPBiCGStab:  Solving for Uy, Initial residual = 0.025871429, Final residual = 3.5444499e-09, No Iterations 6
DICPCG:  Solving for p, Initial residual = 0.0074488556, Final residual = 6.2778445e-05, No Iterations 87
DICPCG:  Solving for p, Initial residual = 5.8954949e-05, Final residual = 5.6901657e-07, No Iterations 41
DICPCG:  Solving for p, Initial residual = 5.6899017e-07, Final residual = 8.7501877e-09, No Iterations 67
time step continuity errors : sum local = 1.6542287e-11, global = 1.4782287e-12, cumulative = 5.1113094e-12
DILUPBiCGStab:  Solving for nuTilda, Initial residual = 0.00081127029, Final residual = 8.6774011e-09, No Iterations 3
ExecutionTime = 2.854447 s  ClockTime = 3 s



volFieldValue mindomain_scalar write:
    min() of nuTilda = 2.4788815e-08 at location (1.9785208 1.0023271e-06 0.5) in cell 135
    min() of nut = 1.4272025e-13 at location (1.9785208 1.0023271e-06 0.5) in cell 135

volFieldValue mindomain_vector write:
    minMag() of U = 0.020778903 at location (1.9785208 1.0023271e-06 0.5) in cell 135

volFieldValue maxdomain_scalar write:
    max() of nuTilda = 2.004922e-06 at location (-0.0020050773 0.00033894396 0.5) in cell 4103
    max() of nut = 1.4790773e-06 at location (-0.0020050773 0.00033894396 0.5) in cell 4103

volFieldValue maxdomain_vector write:
    maxMag() of U = 1.0016045 at location (0.0060340464 0.0023884425 0.5) in cell 6281

yPlus yplus_stats write:
    patch bottom y+ : min = 0.32270221, max = 0.40152351, average = 0.32377219

Time = 22s

DILUPBiCGStab:  Solving for Ux, Initial residual = 0.0015509324, Final residual = 5.1937323e-09, No Iterations 3
DILUPBiCGStab:  Solving for Uy, Initial residual = 0.02452164, Final residual = 9.2731673e-09, No Iterations 6
DICPCG:  Solving for p, Initial residual = 0.0068582373, Final residual = 6.8190118e-05, No Iterations 84
DICPCG:  Solving for p, Initial residual = 6.4145759e-05, Final residual = 6.2713277e-07, No Iterations 46
DICPCG:  Solving for p, Initial residual = 6.2708642e-07, Final residual = 9.0112765e-09, No Iterations 70
time step continuity errors : sum local = 1.8204597e-11, global = 9.5294342e-13, cumulative = 6.0642528e-12
DILUPBiCGStab:  Solving for nuTilda, Initial residual = 0.00085828167, Final residual = 6.9004674e-09, No Iterations 3
ExecutionTime = 2.980837 s  ClockTime = 3 s



volFieldValue mindomain_scalar write:
    min() of nuTilda = 2.416852e-08 at location (1.9785208 1.0023271e-06 0.5) in cell 135
    min() of nut = 1.2857307e-13 at location (1.9785208 1.0023271e-06 0.5) in cell 135

volFieldValue mindomain_vector write:
    minMag() of U = 0.019710134 at location (1.9785208 1.0023271e-06 0.5) in cell 135

volFieldValue maxdomain_scalar write:
    max() of nuTilda = 2.0053711e-06 at location (-0.0020050773 0.00033894396 0.5) in cell 4103
    max() of nut = 1.4796712e-06 at location (-0.0020050773 0.00033894396 0.5) in cell 4103

volFieldValue maxdomain_vector write:
    maxMag() of U = 1.0016044 at location (0.0060340464 0.0023884425 0.5) in cell 6281

yPlus yplus_stats write:
    patch bottom y+ : min = 0.31429347, max = 0.39815863, average = 0.31546184

Time = 23s

DILUPBiCGStab:  Solving for Ux, Initial residual = 0.0014313163, Final residual = 4.9979227e-09, No Iterations 3
DILUPBiCGStab:  Solving for Uy, Initial residual = 0.02330589, Final residual = 8.0271879e-09, No Iterations 6
DICPCG:  Solving for p, Initial residual = 0.0063169039, Final residual = 5.8992613e-05, No Iterations 81
DICPCG:  Solving for p, Initial residual = 5.5561498e-05, Final residual = 5.3054095e-07, No Iterations 64
DICPCG:  Solving for p, Initial residual = 5.3048794e-07, Final residual = 9.3342053e-09, No Iterations 68
time step continuity errors : sum local = 2.0116826e-11, global = -5.3762383e-13, cumulative = 5.526629e-12
DILUPBiCGStab:  Solving for nuTilda, Initial residual = 0.00091347978, Final residual = 4.4323437e-09, No Iterations 3
ExecutionTime = 3.087631 s  ClockTime = 3 s



volFieldValue mindomain_scalar write:
    min() of nuTilda = 2.3585718e-08 at location (1.9785208 1.0023271e-06 0.5) in cell 135
    min() of nut = 1.1628725e-13 at location (1.9785208 1.0023271e-06 0.5) in cell 135

volFieldValue mindomain_vector write:
    minMag() of U = 0.018730337 at location (1.9785208 1.0023271e-06 0.5) in cell 135

volFieldValue maxdomain_scalar write:
    max() of nuTilda = 2.0058165e-06 at location (-0.0020050773 0.00033894396 0.5) in cell 4103
    max() of nut = 1.4802606e-06 at location (-0.0020050773 0.00033894396 0.5) in cell 4103

volFieldValue maxdomain_vector write:
    maxMag() of U = 1.0015985 at location (0.0060340464 0.0023884425 0.5) in cell 6281

yPlus yplus_stats write:
    patch bottom y+ : min = 0.30638204, max = 0.39527969, average = 0.30765599

Time = 24s

DILUPBiCGStab:  Solving for Ux, Initial residual = 0.0013253292, Final residual = 4.7518363e-09, No Iterations 3
DILUPBiCGStab:  Solving for Uy, Initial residual = 0.022218613, Final residual = 6.7288132e-09, No Iterations 6
DICPCG:  Solving for p, Initial residual = 0.0058234543, Final residual = 4.615227e-05, No Iterations 81
DICPCG:  Solving for p, Initial residual = 4.349973e-05, Final residual = 4.0345669e-07, No Iterations 43
DICPCG:  Solving for p, Initial residual = 4.0343604e-07, Final residual = 8.1151186e-09, No Iterations 65
time step continuity errors : sum local = 1.86352e-11, global = 7.9074297e-14, cumulative = 5.6057033e-12
DILUPBiCGStab:  Solving for nuTilda, Initial residual = 0.00097816217, Final residual = 2.9355914e-09, No Iterations 3
ExecutionTime = 3.187199 s  ClockTime = 3 s



volFieldValue mindomain_scalar write:
    min() of nuTilda = 2.3036959e-08 at location (1.9785208 1.0023271e-06 0.5) in cell 135
    min() of nut = 1.0556147e-13 at location (1.9785208 1.0023271e-06 0.5) in cell 135

volFieldValue mindomain_vector write:
    minMag() of U = 0.017829314 at location (1.9785208 1.0023271e-06 0.5) in cell 135

volFieldValue maxdomain_scalar write:
    max() of nuTilda = 2.0062575e-06 at location (-0.0020050773 0.00033894396 0.5) in cell 4103
    max() of nut = 1.4808445e-06 at location (-0.0020050773 0.00033894396 0.5) in cell 4103

volFieldValue maxdomain_vector write:
    maxMag() of U = 1.0015905 at location (0.0060340464 0.0023884425 0.5) in cell 6281

yPlus yplus_stats write:
    patch bottom y+ : min = 0.29892192, max = 0.39282006, average = 0.30030928

Time = 25s

DILUPBiCGStab:  Solving for Ux, Initial residual = 0.0012309951, Final residual = 4.499187e-09, No Iterations 3
DILUPBiCGStab:  Solving for Uy, Initial residual = 0.021251943, Final residual = 5.609127e-09, No Iterations 6
DICPCG:  Solving for p, Initial residual = 0.0053744505, Final residual = 4.7217136e-05, No Iterations 80
DICPCG:  Solving for p, Initial residual = 4.4515913e-05, Final residual = 4.3019118e-07, No Iterations 40
DICPCG:  Solving for p, Initial residual = 4.3017892e-07, Final residual = 8.9063766e-09, No Iterations 68
time step continuity errors : sum local = 2.1777693e-11, global = -6.4980988e-13, cumulative = 4.9558934e-12
DILUPBiCGStab:  Solving for nuTilda, Initial residual = 0.001054217, Final residual = 2.084741e-09, No Iterations 3
ExecutionTime = 3.292563 s  ClockTime = 3 s



volFieldValue mindomain_scalar write:
    min() of nuTilda = 2.2519306e-08 at location (1.9785208 1.0023271e-06 0.5) in cell 135
    min() of nut = 9.6153156e-14 at location (1.9785208 1.0023271e-06 0.5) in cell 135

volFieldValue mindomain_vector write:
    minMag() of U = 0.016998475 at location (1.9785208 1.0023271e-06 0.5) in cell 135

volFieldValue maxdomain_scalar write:
    max() of nuTilda = 2.0066934e-06 at location (-0.0020050773 0.00033894396 0.5) in cell 4103
    max() of nut = 1.481422e-06 at location (-0.0020050773 0.00033894396 0.5) in cell 4103

volFieldValue maxdomain_vector write:
    maxMag() of U = 1.0015757 at location (0.0060340464 0.0023884425 0.5) in cell 6281

yPlus yplus_stats write:
    patch bottom y+ : min = 0.29187398, max = 0.39072209, average = 0.29338328

Time = 26s

DILUPBiCGStab:  Solving for Ux, Initial residual = 0.001146687, Final residual = 4.2850567e-09, No Iterations 3
DILUPBiCGStab:  Solving for Uy, Initial residual = 0.020401053, Final residual = 4.6623568e-09, No Iterations 6
DICPCG:  Solving for p, Initial residual = 0.0049619923, Final residual = 3.9636026e-05, No Iterations 80
DICPCG:  Solving for p, Initial residual = 3.7364286e-05, Final residual = 3.6276177e-07, No Iterations 30
DICPCG:  Solving for p, Initial residual = 3.6276125e-07, Final residual = 9.0401793e-09, No Iterations 68
time step continuity errors : sum local = 2.353228e-11, global = -1.1197922e-12, cumulative = 3.8361011e-12
DILUPBiCGStab:  Solving for nuTilda, Initial residual = 0.001143399, Final residual = 1.660431e-09, No Iterations 3
ExecutionTime = 3.379655 s  ClockTime = 3 s



volFieldValue mindomain_scalar write:
    min() of nuTilda = 2.2030255e-08 at location (1.9785208 1.0023271e-06 0.5) in cell 135
    min() of nut = 8.7865377e-14 at location (1.9785208 1.0023271e-06 0.5) in cell 135

volFieldValue mindomain_vector write:
    minMag() of U = 0.01623054 at location (1.9785208 1.0023271e-06 0.5) in cell 135

volFieldValue maxdomain_scalar write:
    max() of nuTilda = 2.0071241e-06 at location (-0.0020050773 0.00033894396 0.5) in cell 4103
    max() of nut = 1.4819926e-06 at location (-0.0020050773 0.00033894396 0.5) in cell 4103

volFieldValue maxdomain_vector write:
    maxMag() of U = 1.0015563 at location (0.0060340464 0.0023884425 0.5) in cell 6281

yPlus yplus_stats write:
    patch bottom y+ : min = 0.28520481, max = 0.38893568, average = 0.28684537

Time = 27s

DILUPBiCGStab:  Solving for Ux, Initial residual = 0.0010710577, Final residual = 4.1110215e-09, No Iterations 3
DILUPBiCGStab:  Solving for Uy, Initial residual = 0.019667544, Final residual = 3.9296369e-09, No Iterations 6
DICPCG:  Solving for p, Initial residual = 0.0045909842, Final residual = 3.6370268e-05, No Iterations 80
DICPCG:  Solving for p, Initial residual = 3.4274254e-05, Final residual = 2.9569188e-07, No Iterations 31
DICPCG:  Solving for p, Initial residual = 2.956984e-07, Final residual = 7.4800309e-09, No Iterations 68
time step continuity errors : sum local = 2.0728673e-11, global = 1.4852128e-12, cumulative = 5.3213139e-12
DILUPBiCGStab:  Solving for nuTilda, Initial residual = 0.001247202, Final residual = 1.4623746e-09, No Iterations 3
ExecutionTime = 3.467709 s  ClockTime = 3 s



volFieldValue mindomain_scalar write:
    min() of nuTilda = 2.1567673e-08 at location (1.9785208 1.0023271e-06 0.5) in cell 135
    min() of nut = 8.0536958e-14 at location (1.9785208 1.0023271e-06 0.5) in cell 135

volFieldValue mindomain_vector write:
    minMag() of U = 0.015519298 at location (1.9785208 1.0023271e-06 0.5) in cell 135

volFieldValue maxdomain_scalar write:
    max() of nuTilda = 2.0075491e-06 at location (-0.0020050773 0.00033894396 0.5) in cell 4103
    max() of nut = 1.4825561e-06 at location (-0.0020050773 0.00033894396 0.5) in cell 4103

volFieldValue maxdomain_vector write:
    maxMag() of U = 1.0015309 at location (0.0060340464 0.0023884425 0.5) in cell 6281

yPlus yplus_stats write:
    patch bottom y+ : min = 0.27888577, max = 0.38741735, average = 0.28066778

Time = 28s

DILUPBiCGStab:  Solving for Ux, Initial residual = 0.0010029672, Final residual = 3.9960856e-09, No Iterations 3
DILUPBiCGStab:  Solving for Uy, Initial residual = 0.019045666, Final residual = 3.5464132e-09, No Iterations 6
DICPCG:  Solving for p, Initial residual = 0.0042367648, Final residual = 3.7893364e-05, No Iterations 80
DICPCG:  Solving for p, Initial residual = 3.5692459e-05, Final residual = 3.4186652e-07, No Iterations 40
DICPCG:  Solving for p, Initial residual = 3.418812e-07, Final residual = 7.7610498e-09, No Iterations 68
time step continuity errors : sum local = 2.2900491e-11, global = -1.206262e-12, cumulative = 4.1150519e-12
DILUPBiCGStab:  Solving for nuTilda, Initial residual = 0.0013678485, Final residual = 1.3887106e-09, No Iterations 3
ExecutionTime = 3.567594 s  ClockTime = 3 s



volFieldValue mindomain_scalar write:
    min() of nuTilda = 2.1129744e-08 at location (1.9785208 1.0023271e-06 0.5) in cell 135
    min() of nut = 7.4035075e-14 at location (1.9785208 1.0023271e-06 0.5) in cell 135

volFieldValue mindomain_vector write:
    minMag() of U = 0.01485943 at location (1.9785208 1.0023271e-06 0.5) in cell 135

volFieldValue maxdomain_scalar write:
    max() of nuTilda = 2.007969e-06 at location (-0.0020050773 0.00033894396 0.5) in cell 4103
    max() of nut = 1.4831125e-06 at location (-0.0020050773 0.00033894396 0.5) in cell 4103

volFieldValue maxdomain_vector write:
    maxMag() of U = 1.0014997 at location (0.0060340464 0.0023884425 0.5) in cell 6281

yPlus yplus_stats write:
    patch bottom y+ : min = 0.27289234, max = 0.38612997, average = 0.27482691

Time = 29s

DILUPBiCGStab:  Solving for Ux, Initial residual = 0.00094151246, Final residual = 3.9238424e-09, No Iterations 3
DILUPBiCGStab:  Solving for Uy, Initial residual = 0.018534835, Final residual = 9.8862896e-09, No Iterations 5
DICPCG:  Solving for p, Initial residual = 0.0039247591, Final residual = 3.7479713e-05, No Iterations 84
DICPCG:  Solving for p, Initial residual = 3.5289665e-05, Final residual = 3.4920827e-07, No Iterations 40
DICPCG:  Solving for p, Initial residual = 3.4921894e-07, Final residual = 9.9599877e-09, No Iterations 64
time step continuity errors : sum local = 3.1295666e-11, global = 3.1592701e-12, cumulative = 7.274322e-12
DILUPBiCGStab:  Solving for nuTilda, Initial residual = 0.0015065146, Final residual = 1.4206797e-09, No Iterations 3
ExecutionTime = 3.670421 s  ClockTime = 3 s



volFieldValue mindomain_scalar write:
    min() of nuTilda = 2.0714936e-08 at location (1.9785208 1.0023271e-06 0.5) in cell 135
    min() of nut = 6.8249555e-14 at location (1.9785208 1.0023271e-06 0.5) in cell 135

volFieldValue mindomain_vector write:
    minMag() of U = 0.014246357 at location (1.9785208 1.0023271e-06 0.5) in cell 135

volFieldValue maxdomain_scalar write:
    max() of nuTilda = 2.0083842e-06 at location (-0.0020050773 0.00033894396 0.5) in cell 4103
    max() of nut = 1.4836624e-06 at location (-0.0020050773 0.00033894396 0.5) in cell 4103

volFieldValue maxdomain_vector write:
    maxMag() of U = 1.0014627 at location (0.0060340464 0.0023884425 0.5) in cell 6281

yPlus yplus_stats write:
    patch bottom y+ : min = 0.26720351, max = 0.38504156, average = 0.26930273

Time = 30s

DILUPBiCGStab:  Solving for Ux, Initial residual = 0.00088587687, Final residual = 3.8618808e-09, No Iterations 3
DILUPBiCGStab:  Solving for Uy, Initial residual = 0.018118085, Final residual = 8.0623405e-09, No Iterations 5
DICPCG:  Solving for p, Initial residual = 0.0036546083, Final residual = 2.971176e-05, No Iterations 86
DICPCG:  Solving for p, Initial residual = 2.7968351e-05, Final residual = 2.7627276e-07, No Iterations 39
DICPCG:  Solving for p, Initial residual = 2.7627643e-07, Final residual = 9.8158973e-09, No Iterations 64
time step continuity errors : sum local = 3.2846335e-11, global = -3.9766609e-13, cumulative = 6.876656e-12
DILUPBiCGStab:  Solving for nuTilda, Initial residual = 0.0016647447, Final residual = 1.5585962e-09, No Iterations 3
ExecutionTime = 3.766125 s  ClockTime = 4 s



volFieldValue mindomain_scalar write:
    min() of nuTilda = 2.0321965e-08 at location (1.9785208 1.0023271e-06 0.5) in cell 135
    min() of nut = 6.3088488e-14 at location (1.9785208 1.0023271e-06 0.5) in cell 135

volFieldValue mindomain_vector write:
    minMag() of U = 0.013676133 at location (1.9785208 1.0023271e-06 0.5) in cell 135

volFieldValue maxdomain_scalar write:
    max() of nuTilda = 2.0087955e-06 at location (-0.0020050773 0.00033894396 0.5) in cell 4103
    max() of nut = 1.4842067e-06 at location (-0.0020050773 0.00033894396 0.5) in cell 4103

volFieldValue maxdomain_vector write:
    maxMag() of U = 1.001432 at location (0.0060340464 0.00048888965 0.5) in cell 4513

yPlus yplus_stats write:
    patch bottom y+ : min = 0.26180134, max = 0.38412363, average = 0.26407833

Time = 31s

DILUPBiCGStab:  Solving for Ux, Initial residual = 0.00083538617, Final residual = 3.7977821e-09, No Iterations 3
DILUPBiCGStab:  Solving for Uy, Initial residual = 0.017793349, Final residual = 7.3285666e-09, No Iterations 5
DICPCG:  Solving for p, Initial residual = 0.0034129393, Final residual = 2.9310407e-05, No Iterations 86
DICPCG:  Solving for p, Initial residual = 2.7590668e-05, Final residual = 2.6104207e-07, No Iterations 39
DICPCG:  Solving for p, Initial residual = 2.6104461e-07, Final residual = 9.2805464e-09, No Iterations 64
time step continuity errors : sum local = 3.3065207e-11, global = -2.9233424e-13, cumulative = 6.5843217e-12
DILUPBiCGStab:  Solving for nuTilda, Initial residual = 0.0018422341, Final residual = 1.8277696e-09, No Iterations 3
ExecutionTime = 3.875694 s  ClockTime = 4 s



volFieldValue mindomain_scalar write:
    min() of nuTilda = 1.994977e-08 at location (1.9785208 1.0023271e-06 0.5) in cell 135
    min() of nut = 5.8474795e-14 at location (1.9785208 1.0023271e-06 0.5) in cell 135

volFieldValue mindomain_vector write:
    minMag() of U = 0.013145341 at location (1.9785208 1.0023271e-06 0.5) in cell 135

volFieldValue maxdomain_scalar write:
    max() of nuTilda = 2.009207e-06 at location (-0.0020050773 0.00033894396 0.5) in cell 4103
    max() of nut = 1.4847488e-06 at location (-0.0020050773 0.00033894396 0.5) in cell 4103

volFieldValue maxdomain_vector write:
    maxMag() of U = 1.0014184 at location (0.0060340464 0.00048888965 0.5) in cell 4513

yPlus yplus_stats write:
    patch bottom y+ : min = 0.2566706, max = 0.38335164, average = 0.25913949

Time = 32s

DILUPBiCGStab:  Solving for Ux, Initial residual = 0.00078942414, Final residual = 3.7404258e-09, No Iterations 3
DILUPBiCGStab:  Solving for Uy, Initial residual = 0.017534121, Final residual = 6.5423845e-09, No Iterations 5
DICPCG:  Solving for p, Initial residual = 0.003203083, Final residual = 2.7581645e-05, No Iterations 86
DICPCG:  Solving for p, Initial residual = 2.5972643e-05, Final residual = 2.5373994e-07, No Iterations 33
DICPCG:  Solving for p, Initial residual = 2.5374173e-07, Final residual = 8.4011988e-09, No Iterations 71
time step continuity errors : sum local = 3.1852018e-11, global = 4.8988964e-13, cumulative = 7.0742114e-12
DILUPBiCGStab:  Solving for nuTilda, Initial residual = 0.0020392724, Final residual = 2.3279311e-09, No Iterations 3
ExecutionTime = 3.978311 s  ClockTime = 4 s



volFieldValue mindomain_scalar write:
    min() of nuTilda = 1.9597491e-08 at location (1.9785208 1.0023271e-06 0.5) in cell 135
    min() of nut = 5.4343539e-14 at location (1.9785208 1.0023271e-06 0.5) in cell 135

volFieldValue mindomain_vector write:
    minMag() of U = 0.012651029 at location (1.9785208 1.0023271e-06 0.5) in cell 135

volFieldValue maxdomain_scalar write:
    max() of nuTilda = 2.0096125e-06 at location (-0.0020050773 0.00033894396 0.5) in cell 4103
    max() of nut = 1.4852866e-06 at location (-0.0020050773 0.00033894396 0.5) in cell 4103

volFieldValue maxdomain_vector write:
    maxMag() of U = 1.0014002 at location (0.0060340464 0.00048888965 0.5) in cell 4513

yPlus yplus_stats write:
    patch bottom y+ : min = 0.25179847, max = 0.38270437, average = 0.2544744

Time = 33s

DILUPBiCGStab:  Solving for Ux, Initial residual = 0.00074748556, Final residual = 3.7020135e-09, No Iterations 3
DILUPBiCGStab:  Solving for Uy, Initial residual = 0.01732134, Final residual = 5.8295315e-09, No Iterations 5
DICPCG:  Solving for p, Initial residual = 0.0030120406, Final residual = 2.5067492e-05, No Iterations 86
DICPCG:  Solving for p, Initial residual = 2.3621734e-05, Final residual = 2.2898373e-07, No Iterations 32
DICPCG:  Solving for p, Initial residual = 2.2898466e-07, Final residual = 8.8737036e-09, No Iterations 69
time step continuity errors : sum local = 3.5768692e-11, global = 8.4958733e-13, cumulative = 7.9237987e-12
DILUPBiCGStab:  Solving for nuTilda, Initial residual = 0.0022558141, Final residual = 3.2008278e-09, No Iterations 3
ExecutionTime = 4.088207 s  ClockTime = 4 s



volFieldValue mindomain_scalar write:
    min() of nuTilda = 1.9264448e-08 at location (1.9785208 1.0023271e-06 0.5) in cell 135
    min() of nut = 5.0639777e-14 at location (1.9785208 1.0023271e-06 0.5) in cell 135

volFieldValue mindomain_vector write:
    minMag() of U = 0.012190636 at location (1.9785208 1.0023271e-06 0.5) in cell 135

volFieldValue maxdomain_scalar write:
    max() of nuTilda = 2.010011e-06 at location (-0.0020050773 0.00033894396 0.5) in cell 4103
    max() of nut = 1.4858158e-06 at location (-0.0020050773 0.00033894396 0.5) in cell 4103

volFieldValue maxdomain_vector write:
    maxMag() of U = 1.0013763 at location (0.0060340464 0.00048888965 0.5) in cell 4513

yPlus yplus_stats write:
    patch bottom y+ : min = 0.2471743, max = 0.38216343, average = 0.25007329

Time = 34s

DILUPBiCGStab:  Solving for Ux, Initial residual = 0.00070915687, Final residual = 3.7137239e-09, No Iterations 3
DILUPBiCGStab:  Solving for Uy, Initial residual = 0.017140351, Final residual = 4.6024345e-09, No Iterations 5
DICPCG:  Solving for p, Initial residual = 0.0028359471, Final residual = 2.3511365e-05, No Iterations 86
DICPCG:  Solving for p, Initial residual = 2.2177718e-05, Final residual = 2.043665e-07, No Iterations 32
DICPCG:  Solving for p, Initial residual = 2.0436694e-07, Final residual = 8.9212286e-09, No Iterations 68
time step continuity errors : sum local = 3.8186221e-11, global = 6.9287655e-13, cumulative = 8.6166752e-12
DILUPBiCGStab:  Solving for nuTilda, Initial residual = 0.0024927873, Final residual = 4.5380302e-09, No Iterations 3
ExecutionTime = 4.18786 s  ClockTime = 4 s



volFieldValue mindomain_scalar write:
    min() of nuTilda = 1.8950128e-08 at location (1.9785208 1.0023271e-06 0.5) in cell 135
    min() of nut = 4.7316839e-14 at location (1.9785208 1.0023271e-06 0.5) in cell 135

volFieldValue mindomain_vector write:
    minMag() of U = 0.011761948 at location (1.9785208 1.0023271e-06 0.5) in cell 135

volFieldValue maxdomain_scalar write:
    max() of nuTilda = 2.0633423e-06 at location (1.4200607 0.0012977308 0.5) in cell 5698
    max() of nut = 1.4863365e-06 at location (-0.0020050773 0.0002999673 0.5) in cell 3967

volFieldValue maxdomain_vector write:
    maxMag() of U = 1.0013472 at location (0.0060340464 0.00048888965 0.5) in cell 4513

yPlus yplus_stats write:
    patch bottom y+ : min = 0.24278941, max = 0.38171275, average = 0.24592822

Time = 35s

DILUPBiCGStab:  Solving for Ux, Initial residual = 0.00067402519, Final residual = 3.7322506e-09, No Iterations 3
DILUPBiCGStab:  Solving for Uy, Initial residual = 0.016982018, Final residual = 3.7494394e-09, No Iterations 5
DICPCG:  Solving for p, Initial residual = 0.0026838002, Final residual = 2.1439263e-05, No Iterations 86
DICPCG:  Solving for p, Initial residual = 2.0248709e-05, Final residual = 1.8028962e-07, No Iterations 32
DICPCG:  Solving for p, Initial residual = 1.8028983e-07, Final residual = 8.2118704e-09, No Iterations 68
time step continuity errors : sum local = 3.7273148e-11, global = 4.3630513e-13, cumulative = 9.0529804e-12
DILUPBiCGStab:  Solving for nuTilda, Initial residual = 0.0027514234, Final residual = 6.8220046e-09, No Iterations 3
ExecutionTime = 4.285967 s  ClockTime = 4 s



volFieldValue mindomain_scalar write:
    min() of nuTilda = 1.865416e-08 at location (1.9785208 1.0023271e-06 0.5) in cell 135
    min() of nut = 4.4334933e-14 at location (1.9785208 1.0023271e-06 0.5) in cell 135

volFieldValue mindomain_vector write:
    minMag() of U = 0.011363047 at location (1.9785208 1.0023271e-06 0.5) in cell 135

volFieldValue maxdomain_scalar write:
    max() of nuTilda = 2.2412221e-06 at location (1.5489361 0.0014661282 0.5) in cell 5837
    max() of nut = 1.6899272e-06 at location (1.4200607 0.0012977308 0.5) in cell 5698

volFieldValue maxdomain_vector write:
    maxMag() of U = 1.0013146 at location (0.0060340464 0.00048888965 0.5) in cell 4513

yPlus yplus_stats write:
    patch bottom y+ : min = 0.23863684, max = 0.38133821, average = 0.24203274

Time = 36s

DILUPBiCGStab:  Solving for Ux, Initial residual = 0.00064179657, Final residual = 3.7839103e-09, No Iterations 3
DILUPBiCGStab:  Solving for Uy, Initial residual = 0.01683177, Final residual = 3.1981237e-09, No Iterations 5
DICPCG:  Solving for p, Initial residual = 0.0025572783, Final residual = 1.9532026e-05, No Iterations 86
DICPCG:  Solving for p, Initial residual = 1.8473285e-05, Final residual = 1.5825354e-07, No Iterations 32
DICPCG:  Solving for p, Initial residual = 1.5825355e-07, Final residual = 9.5223193e-09, No Iterations 67
time step continuity errors : sum local = 4.5761121e-11, global = -1.8792735e-14, cumulative = 9.0341876e-12
DILUPBiCGStab:  Solving for nuTilda, Initial residual = 0.0030326195, Final residual = 9.957011e-09, No Iterations 3
ExecutionTime = 4.383202 s  ClockTime = 4 s



volFieldValue mindomain_scalar write:
    min() of nuTilda = 1.8376301e-08 at location (1.9785208 1.0023271e-06 0.5) in cell 135
    min() of nut = 4.1659991e-14 at location (1.9785208 1.0023271e-06 0.5) in cell 135

volFieldValue mindomain_vector write:
    minMag() of U = 0.010992271 at location (1.9785208 1.0023271e-06 0.5) in cell 135

volFieldValue maxdomain_scalar write:
    max() of nuTilda = 2.4347216e-06 at location (1.5489361 0.0014661282 0.5) in cell 5837
    max() of nut = 1.9410419e-06 at location (1.5489361 0.0014661282 0.5) in cell 5837

volFieldValue maxdomain_vector write:
    maxMag() of U = 1.0012788 at location (0.0060340464 0.00048888965 0.5) in cell 4513

yPlus yplus_stats write:
    patch bottom y+ : min = 0.23471118, max = 0.38102765, average = 0.23838165

Time = 37s

DILUPBiCGStab:  Solving for Ux, Initial residual = 0.00061217925, Final residual = 3.8471212e-09, No Iterations 3
DILUPBiCGStab:  Solving for Uy, Initial residual = 0.01667483, Final residual = 2.7696945e-09, No Iterations 5
DICPCG:  Solving for p, Initial residual = 0.0024470287, Final residual = 2.3246605e-05, No Iterations 85
DICPCG:  Solving for p, Initial residual = 2.2019607e-05, Final residual = 1.9190823e-07, No Iterations 33
DICPCG:  Solving for p, Initial residual = 1.9190838e-07, Final residual = 9.4397934e-09, No Iterations 68
time step continuity errors : sum local = 4.79529e-11, global = 5.9419385e-13, cumulative = 9.6283815e-12
DILUPBiCGStab:  Solving for nuTilda, Initial residual = 0.0033369075, Final residual = 1.5763158e-09, No Iterations 3
ExecutionTime = 4.481329 s  ClockTime = 4 s



volFieldValue mindomain_scalar write:
    min() of nuTilda = 1.8116404e-08 at location (1.9785208 1.0023271e-06 0.5) in cell 135
    min() of nut = 3.926271e-14 at location (1.9785208 1.0023271e-06 0.5) in cell 135

volFieldValue mindomain_vector write:
    minMag() of U = 0.010648178 at location (1.9785208 1.0023271e-06 0.5) in cell 135

volFieldValue maxdomain_scalar write:
    max() of nuTilda = 2.6399383e-06 at location (1.6778115 0.0016563743 0.5) in cell 5976
    max() of nut = 2.2003301e-06 at location (1.6778115 0.0016563743 0.5) in cell 5976

volFieldValue maxdomain_vector write:
    maxMag() of U = 1.0012404 at location (0.0060340464 0.00048888965 0.5) in cell 4513

yPlus yplus_stats write:
    patch bottom y+ : min = 0.23100837, max = 0.38077071, average = 0.23497068

Time = 38s

DILUPBiCGStab:  Solving for Ux, Initial residual = 0.00058494158, Final residual = 3.9392173e-09, No Iterations 3
DILUPBiCGStab:  Solving for Uy, Initial residual = 0.016503372, Final residual = 9.9104672e-09, No Iterations 5
DICPCG:  Solving for p, Initial residual = 0.0023423287, Final residual = 2.0180061e-05, No Iterations 85
DICPCG:  Solving for p, Initial residual = 1.9145113e-05, Final residual = 1.837546e-07, No Iterations 32
DICPCG:  Solving for p, Initial residual = 1.8375452e-07, Final residual = 8.9346878e-09, No Iterations 68
time step continuity errors : sum local = 4.789524e-11, global = 1.3822357e-12, cumulative = 1.1010617e-11
DILUPBiCGStab:  Solving for nuTilda, Initial residual = 0.0036681612, Final residual = 2.2647011e-09, No Iterations 3
ExecutionTime = 4.583493 s  ClockTime = 4 s



volFieldValue mindomain_scalar write:
    min() of nuTilda = 1.7874402e-08 at location (1.9785208 1.0023271e-06 0.5) in cell 135
    min() of nut = 3.7117743e-14 at location (1.9785208 1.0023271e-06 0.5) in cell 135

volFieldValue mindomain_vector write:
    minMag() of U = 0.01032951 at location (1.9785208 1.0023271e-06 0.5) in cell 135

volFieldValue maxdomain_scalar write:
    max() of nuTilda = 2.8567885e-06 at location (1.6778115 0.0016563743 0.5) in cell 5976
    max() of nut = 2.4720689e-06 at location (1.6778115 0.0016563743 0.5) in cell 5976

volFieldValue maxdomain_vector write:
    maxMag() of U = 1.0011998 at location (0.0060340464 0.00048888965 0.5) in cell 4513

yPlus yplus_stats write:
    patch bottom y+ : min = 0.22752541, max = 0.38055871, average = 0.23179624

Time = 39s

DILUPBiCGStab:  Solving for Ux, Initial residual = 0.00055984268, Final residual = 4.0379078e-09, No Iterations 3
DILUPBiCGStab:  Solving for Uy, Initial residual = 0.016318157, Final residual = 2.3237338e-09, No Iterations 5
DICPCG:  Solving for p, Initial residual = 0.0022486727, Final residual = 1.8749762e-05, No Iterations 85
DICPCG:  Solving for p, Initial residual = 1.7815158e-05, Final residual = 1.6529217e-07, No Iterations 32
DICPCG:  Solving for p, Initial residual = 1.6529188e-07, Final residual = 9.9949331e-09, No Iterations 66
time step continuity errors : sum local = 5.644876e-11, global = -1.2600305e-12, cumulative = 9.7505866e-12
DILUPBiCGStab:  Solving for nuTilda, Initial residual = 0.0040261953, Final residual = 3.2550766e-09, No Iterations 3
ExecutionTime = 4.681853 s  ClockTime = 4 s



volFieldValue mindomain_scalar write:
    min() of nuTilda = 1.7650268e-08 at location (1.9785208 1.0023271e-06 0.5) in cell 135
    min() of nut = 3.5203021e-14 at location (1.9785208 1.0023271e-06 0.5) in cell 135

volFieldValue mindomain_vector write:
    minMag() of U = 0.010035158 at location (1.9785208 1.0023271e-06 0.5) in cell 135

volFieldValue maxdomain_scalar write:
    max() of nuTilda = 3.091661e-06 at location (1.8066869 0.0018713042 0.5) in cell 6115
    max() of nut = 2.7530955e-06 at location (1.8066869 0.0018713042 0.5) in cell 6115

volFieldValue maxdomain_vector write:
    maxMag() of U = 1.0011564 at location (0.0060340464 0.00048888965 0.5) in cell 4513

yPlus yplus_stats write:
    patch bottom y+ : min = 0.22426017, max = 0.38038435, average = 0.22885505

Time = 40s

DILUPBiCGStab:  Solving for Ux, Initial residual = 0.00053675087, Final residual = 4.1393839e-09, No Iterations 3
DILUPBiCGStab:  Solving for Uy, Initial residual = 0.016124066, Final residual = 8.2288111e-09, No Iterations 5
DICPCG:  Solving for p, Initial residual = 0.0021565773, Final residual = 1.6899335e-05, No Iterations 85
DICPCG:  Solving for p, Initial residual = 1.6081169e-05, Final residual = 1.462363e-07, No Iterations 32
DICPCG:  Solving for p, Initial residual = 1.46236e-07, Final residual = 8.9089016e-09, No Iterations 61
time step continuity errors : sum local = 5.2926296e-11, global = -3.5510791e-12, cumulative = 6.1995075e-12
DILUPBiCGStab:  Solving for nuTilda, Initial residual = 0.004414701, Final residual = 4.4681909e-09, No Iterations 3
ExecutionTime = 4.771369 s  ClockTime = 5 s



volFieldValue mindomain_scalar write:
    min() of nuTilda = 1.7443984e-08 at location (1.9785208 1.0023271e-06 0.5) in cell 135
    min() of nut = 3.3499142e-14 at location (1.9785208 1.0023271e-06 0.5) in cell 135

volFieldValue mindomain_vector write:
    minMag() of U = 0.0097641297 at location (1.9785208 1.0023271e-06 0.5) in cell 135

volFieldValue maxdomain_scalar write:
    max() of nuTilda = 3.336989e-06 at location (1.9785208 0.0021141207 0.5) in cell 6255
    max() of nut = 3.0393298e-06 at location (1.8066869 0.0018713042 0.5) in cell 6115

volFieldValue maxdomain_vector write:
    maxMag() of U = 1.0011125 at location (0.0060340464 0.00048888965 0.5) in cell 4513

yPlus yplus_stats write:
    patch bottom y+ : min = 0.22121104, max = 0.38024154, average = 0.22614389

Time = 41s

DILUPBiCGStab:  Solving for Ux, Initial residual = 0.00051552412, Final residual = 4.235438e-09, No Iterations 3
DILUPBiCGStab:  Solving for Uy, Initial residual = 0.015919815, Final residual = 6.5195718e-09, No Iterations 5
DICPCG:  Solving for p, Initial residual = 0.0020694491, Final residual = 1.5469902e-05, No Iterations 85
DICPCG:  Solving for p, Initial residual = 1.4741923e-05, Final residual = 1.3456191e-07, No Iterations 32
DICPCG:  Solving for p, Initial residual = 1.3456163e-07, Final residual = 8.6429398e-09, No Iterations 60
time step continuity errors : sum local = 5.3930646e-11, global = -3.1290539e-12, cumulative = 3.0704536e-12
DILUPBiCGStab:  Solving for nuTilda, Initial residual = 0.0048360879, Final residual = 6.1708327e-09, No Iterations 3
ExecutionTime = 4.863312 s  ClockTime = 5 s



volFieldValue mindomain_scalar write:
    min() of nuTilda = 1.7255505e-08 at location (1.9785208 1.0023271e-06 0.5) in cell 135
    min() of nut = 3.1988866e-14 at location (1.9785208 1.0023271e-06 0.5) in cell 135

volFieldValue mindomain_vector write:
    minMag() of U = 0.0095155184 at location (1.9785208 1.0023271e-06 0.5) in cell 135

volFieldValue maxdomain_scalar write:
    max() of nuTilda = 3.6004674e-06 at location (1.9355623 0.0021141207 0.5) in cell 6254
    max() of nut = 3.3428425e-06 at location (1.9355623 0.0021141207 0.5) in cell 6254

volFieldValue maxdomain_vector write:
    maxMag() of U = 1.0010665 at location (0.0060340464 0.00048888965 0.5) in cell 4513

yPlus yplus_stats write:
    patch bottom y+ : min = 0.21837667, max = 0.38012521, average = 0.22365926

Time = 42s

DILUPBiCGStab:  Solving for Ux, Initial residual = 0.00049597735, Final residual = 4.3382137e-09, No Iterations 3
DILUPBiCGStab:  Solving for Uy, Initial residual = 0.015703088, Final residual = 5.301814e-09, No Iterations 5
DICPCG:  Solving for p, Initial residual = 0.0019931267, Final residual = 1.9190332e-05, No Iterations 84
DICPCG:  Solving for p, Initial residual = 1.8312537e-05, Final residual = 1.7786476e-07, No Iterations 33
DICPCG:  Solving for p, Initial residual = 1.7786436e-07, Final residual = 9.6558902e-09, No Iterations 62
time step continuity errors : sum local = 6.3192988e-11, global = -2.6897691e-12, cumulative = 3.8068454e-13
DILUPBiCGStab:  Solving for nuTilda, Initial residual = 0.0052937916, Final residual = 8.4094496e-09, No Iterations 3
ExecutionTime = 4.96615 s  ClockTime = 5 s



volFieldValue mindomain_scalar write:
    min() of nuTilda = 1.7084722e-08 at location (1.9785208 1.0023271e-06 0.5) in cell 135
    min() of nut = 3.0656679e-14 at location (1.9785208 1.0023271e-06 0.5) in cell 135

volFieldValue mindomain_vector write:
    minMag() of U = 0.0092884725 at location (1.9785208 1.0023271e-06 0.5) in cell 135

volFieldValue maxdomain_scalar write:
    max() of nuTilda = 3.8755778e-06 at location (1.9785208 0.0023884425 0.5) in cell 6391
    max() of nut = 3.6494406e-06 at location (1.9785208 0.0023884425 0.5) in cell 6391

volFieldValue maxdomain_vector write:
    maxMag() of U = 1.0010182 at location (0.0060340464 0.00048888965 0.5) in cell 4513

yPlus yplus_stats write:
    patch bottom y+ : min = 0.21575564, max = 0.38003111, average = 0.22139716

Time = 43s

DILUPBiCGStab:  Solving for Ux, Initial residual = 0.00047805792, Final residual = 4.4165474e-09, No Iterations 3
DILUPBiCGStab:  Solving for Uy, Initial residual = 0.015470609, Final residual = 4.1273677e-09, No Iterations 6
DICPCG:  Solving for p, Initial residual = 0.0019212411, Final residual = 1.7808328e-05, No Iterations 84
DICPCG:  Solving for p, Initial residual = 1.7015665e-05, Final residual = 1.6626198e-07, No Iterations 33
DICPCG:  Solving for p, Initial residual = 1.6626158e-07, Final residual = 9.7482616e-09, No Iterations 59
time step continuity errors : sum local = 6.6822734e-11, global = -2.2829711e-12, cumulative = -1.9022866e-12
DILUPBiCGStab:  Solving for nuTilda, Initial residual = 0.0057919048, Final residual = 2.4625248e-10, No Iterations 4
ExecutionTime = 5.073032 s  ClockTime = 5 s



volFieldValue mindomain_scalar write:
    min() of nuTilda = 1.693143e-08 at location (1.9785208 1.0023271e-06 0.5) in cell 135
    min() of nut = 2.9488426e-14 at location (1.9785208 1.0023271e-06 0.5) in cell 135

volFieldValue mindomain_vector write:
    minMag() of U = 0.0090821691 at location (1.9785208 1.0023271e-06 0.5) in cell 135

volFieldValue maxdomain_scalar write:
    max() of nuTilda = 4.1693141e-06 at location (1.9785208 0.0023884425 0.5) in cell 6391
    max() of nut = 3.97385e-06 at location (1.9785208 0.0023884425 0.5) in cell 6391

volFieldValue maxdomain_vector write:
    maxMag() of U = 1.0009679 at location (0.0060340464 0.00048888965 0.5) in cell 4513

yPlus yplus_stats write:
    patch bottom y+ : min = 0.21334614, max = 0.37995564, average = 0.2193528

Time = 44s

DILUPBiCGStab:  Solving for Ux, Initial residual = 0.00046167097, Final residual = 4.5218739e-09, No Iterations 3
DILUPBiCGStab:  Solving for Uy, Initial residual = 0.015233702, Final residual = 2.8237181e-09, No Iterations 5
DICPCG:  Solving for p, Initial residual = 0.0018642376, Final residual = 1.6529714e-05, No Iterations 84
DICPCG:  Solving for p, Initial residual = 1.5813508e-05, Final residual = 1.5566123e-07, No Iterations 33
DICPCG:  Solving for p, Initial residual = 1.5566089e-07, Final residual = 9.8854691e-09, No Iterations 59
time step continuity errors : sum local = 7.088595e-11, global = -3.6245144e-12, cumulative = -5.526801e-12
DILUPBiCGStab:  Solving for nuTilda, Initial residual = 0.0063352067, Final residual = 2.7864609e-10, No Iterations 4
ExecutionTime = 5.180271 s  ClockTime = 5 s



volFieldValue mindomain_scalar write:
    min() of nuTilda = 1.6795296e-08 at location (1.9785208 1.0023271e-06 0.5) in cell 135
    min() of nut = 2.8471006e-14 at location (1.9785208 1.0023271e-06 0.5) in cell 135

volFieldValue mindomain_vector write:
    minMag() of U = 0.00889579 at location (1.9785208 1.0023271e-06 0.5) in cell 135

volFieldValue maxdomain_scalar write:
    max() of nuTilda = 4.4706545e-06 at location (1.9785208 0.0026983575 0.5) in cell 6527
    max() of nut = 4.2993023e-06 at location (1.9785208 0.0023884425 0.5) in cell 6391

volFieldValue maxdomain_vector write:
    maxMag() of U = 1.0009231 at location (0.057349234 0.0091398493 0.5) in cell 7789

yPlus yplus_stats write:
    patch bottom y+ : min = 0.2111457, max = 0.37989577, average = 0.21752046

Time = 45s

DILUPBiCGStab:  Solving for Ux, Initial residual = 0.0004467279, Final residual = 4.605493e-09, No Iterations 3
DILUPBiCGStab:  Solving for Uy, Initial residual = 0.014998088, Final residual = 2.6637093e-09, No Iterations 5
DICPCG:  Solving for p, Initial residual = 0.0018241325, Final residual = 1.5516451e-05, No Iterations 84
DICPCG:  Solving for p, Initial residual = 1.4861674e-05, Final residual = 1.4604155e-07, No Iterations 33
DICPCG:  Solving for p, Initial residual = 1.4604129e-07, Final residual = 9.7538789e-09, No Iterations 59
time step continuity errors : sum local = 7.307561e-11, global = -4.2638598e-12, cumulative = -9.7906608e-12
DILUPBiCGStab:  Solving for nuTilda, Initial residual = 0.0069296793, Final residual = 3.2564206e-10, No Iterations 4
ExecutionTime = 5.256753 s  ClockTime = 5 s



volFieldValue mindomain_scalar write:
    min() of nuTilda = 1.6675843e-08 at location (1.9785208 1.0023271e-06 0.5) in cell 135
    min() of nut = 2.759212e-14 at location (1.9785208 1.0023271e-06 0.5) in cell 135

volFieldValue mindomain_vector write:
    minMag() of U = 0.0087285016 at location (1.9785208 1.0023271e-06 0.5) in cell 135

volFieldValue maxdomain_scalar write:
    max() of nuTilda = 4.7971772e-06 at location (1.9785208 0.0026983575 0.5) in cell 6527
    max() of nut = 4.6482277e-06 at location (1.9785208 0.0026983575 0.5) in cell 6527

volFieldValue maxdomain_vector write:
    maxMag() of U = 1.0009316 at location (0.061920078 0.0091398493 0.5) in cell 7790

yPlus yplus_stats write:
    patch bottom y+ : min = 0.20915094, max = 0.37984892, average = 0.2158933

Time = 46s

DILUPBiCGStab:  Solving for Ux, Initial residual = 0.00043310816, Final residual = 4.6726214e-09, No Iterations 3
DILUPBiCGStab:  Solving for Uy, Initial residual = 0.014761332, Final residual = 3.3041204e-09, No Iterations 5
DICPCG:  Solving for p, Initial residual = 0.0017937386, Final residual = 1.781962e-05, No Iterations 83
DICPCG:  Solving for p, Initial residual = 1.7086463e-05, Final residual = 1.6172068e-07, No Iterations 35
DICPCG:  Solving for p, Initial residual = 1.6172048e-07, Final residual = 9.5184031e-09, No Iterations 59
time step continuity errors : sum local = 7.4422565e-11, global = -3.6695798e-12, cumulative = -1.3460241e-11
DILUPBiCGStab:  Solving for nuTilda, Initial residual = 0.0075814851, Final residual = 3.7879588e-10, No Iterations 4
ExecutionTime = 5.330241 s  ClockTime = 5 s



volFieldValue mindomain_scalar write:
    min() of nuTilda = 1.6572436e-08 at location (1.9785208 1.0023271e-06 0.5) in cell 135
    min() of nut = 2.6840093e-14 at location (1.9785208 1.0023271e-06 0.5) in cell 135

volFieldValue mindomain_vector write:
    minMag() of U = 0.0085794401 at location (1.9785208 1.0023271e-06 0.5) in cell 135

volFieldValue maxdomain_scalar write:
    max() of nuTilda = 5.1299013e-06 at location (1.9785208 0.0026983575 0.5) in cell 6527
    max() of nut = 5.0002143e-06 at location (1.9785208 0.0026983575 0.5) in cell 6527

volFieldValue maxdomain_vector write:
    maxMag() of U = 1.0009398 at location (0.066544289 0.0091398493 0.5) in cell 7791

yPlus yplus_stats write:
    patch bottom y+ : min = 0.20735735, max = 0.37981289, average = 0.21446337

Time = 47s

DILUPBiCGStab:  Solving for Ux, Initial residual = 0.00042073698, Final residual = 4.7409347e-09, No Iterations 3
DILUPBiCGStab:  Solving for Uy, Initial residual = 0.01451939, Final residual = 5.1045917e-09, No Iterations 5
DICPCG:  Solving for p, Initial residual = 0.0017625692, Final residual = 1.6955239e-05, No Iterations 83
DICPCG:  Solving for p, Initial residual = 1.6274372e-05, Final residual = 1.5857677e-07, No Iterations 35
DICPCG:  Solving for p, Initial residual = 1.5857662e-07, Final residual = 9.7768644e-09, No Iterations 58
time step continuity errors : sum local = 7.9693411e-11, global = -3.8771363e-12, cumulative = -1.7337377e-11
DILUPBiCGStab:  Solving for nuTilda, Initial residual = 0.0083000558, Final residual = 4.3717576e-10, No Iterations 4
ExecutionTime = 5.402504 s  ClockTime = 5 s



volFieldValue mindomain_scalar write:
    min() of nuTilda = 1.6484282e-08 at location (1.9785208 1.0023271e-06 0.5) in cell 135
    min() of nut = 2.6203744e-14 at location (1.9785208 1.0023271e-06 0.5) in cell 135

volFieldValue mindomain_vector write:
    minMag() of U = 0.008447701 at location (1.9785208 1.0023271e-06 0.5) in cell 135

volFieldValue maxdomain_scalar write:
    max() of nuTilda = 5.4824029e-06 at location (1.9785208 0.0030484842 0.5) in cell 6663
    max() of nut = 5.3679315e-06 at location (1.9785208 0.0030484842 0.5) in cell 6663

volFieldValue maxdomain_vector write:
    maxMag() of U = 1.0009483 at location (0.071223818 0.0091398493 0.5) in cell 7792

yPlus yplus_stats write:
    patch bottom y+ : min = 0.20575919, max = 0.3797858, average = 0.21322153

Time = 48s

DILUPBiCGStab:  Solving for Ux, Initial residual = 0.00040963964, Final residual = 4.7589725e-09, No Iterations 3
DILUPBiCGStab:  Solving for Uy, Initial residual = 0.01427876, Final residual = 2.2651649e-10, No Iterations 6
DICPCG:  Solving for p, Initial residual = 0.0017338896, Final residual = 1.6394348e-05, No Iterations 83
DICPCG:  Solving for p, Initial residual = 1.5751894e-05, Final residual = 1.5307933e-07, No Iterations 36
DICPCG:  Solving for p, Initial residual = 1.5307934e-07, Final residual = 9.9096575e-09, No Iterations 58
[...]

volFieldValue maxdomain_scalar write:
    max() of nuTilda = 7.6369549e-05 at location (1.9785208 0.013179228 0.5) in cell 8295
    max() of nut = 7.6369058e-05 at location (1.9785208 0.013179228 0.5) in cell 8295

volFieldValue maxdomain_vector write:
    maxMag() of U = 1.0040324 at location (1.9785208 0.082156882 0.5) in cell 10335

yPlus yplus_stats write:
    patch bottom y+ : min = 0.17610423, max = 0.37836258, average = 0.20461385

Time = 1989s

DILUPBiCGStab:  Solving for Ux, Initial residual = 1.3792542e-06, Final residual = 2.6876079e-11, No Iterations 3
DILUPBiCGStab:  Solving for Uy, Initial residual = 0.0010216654, Final residual = 5.9446937e-11, No Iterations 3
DICPCG:  Solving for p, Initial residual = 0.00020249058, Final residual = 2.0185579e-06, No Iterations 71
DICPCG:  Solving for p, Initial residual = 2.0139304e-06, Final residual = 1.9103121e-08, No Iterations 45
DICPCG:  Solving for p, Initial residual = 1.9103152e-08, Final residual = 9.7399534e-09, No Iterations 25
time step continuity errors : sum local = 4.4992059e-10, global = -8.7509322e-11, cumulative = -5.8449938e-10
DILUPBiCGStab:  Solving for nuTilda, Initial residual = 3.7992268e-07, Final residual = 2.3750382e-13, No Iterations 3
ExecutionTime = 142.74954 s  ClockTime = 143 s



volFieldValue mindomain_scalar write:
    min() of nuTilda = 1.4436271e-08 at location (1.9785208 1.0023271e-06 0.5) in cell 135
    min() of nut = 1.516892e-14 at location (1.9785208 1.0023271e-06 0.5) in cell 135

volFieldValue mindomain_vector write:
    minMag() of U = 0.0061881359 at location (1.9785208 1.0023271e-06 0.5) in cell 135

volFieldValue maxdomain_scalar write:
    max() of nuTilda = 7.6369542e-05 at location (1.9785208 0.013179228 0.5) in cell 8295
    max() of nut = 7.6369051e-05 at location (1.9785208 0.013179228 0.5) in cell 8295

volFieldValue maxdomain_vector write:
    maxMag() of U = 1.0040331 at location (1.9785208 0.082156882 0.5) in cell 10335

yPlus yplus_stats write:
    patch bottom y+ : min = 0.17610423, max = 0.37836244, average = 0.20461384

Time = 1990s

DILUPBiCGStab:  Solving for Ux, Initial residual = 1.3785546e-06, Final residual = 2.4922769e-11, No Iterations 3
DILUPBiCGStab:  Solving for Uy, Initial residual = 0.0010243445, Final residual = 6.4576454e-11, No Iterations 3
DICPCG:  Solving for p, Initial residual = 0.00020203235, Final residual = 1.9221486e-06, No Iterations 72
DICPCG:  Solving for p, Initial residual = 1.926566e-06, Final residual = 1.9245902e-08, No Iterations 44
DICPCG:  Solving for p, Initial residual = 1.9245891e-08, Final residual = 9.7466628e-09, No Iterations 11
time step continuity errors : sum local = 4.4919033e-10, global = 3.7738062e-11, cumulative = -5.4676132e-10
DILUPBiCGStab:  Solving for nuTilda, Initial residual = 3.7716793e-07, Final residual = 1.642263e-13, No Iterations 3
ExecutionTime = 142.80888 s  ClockTime = 143 s



volFieldValue mindomain_scalar write:
    min() of nuTilda = 1.4436271e-08 at location (1.9785208 1.0023271e-06 0.5) in cell 135
    min() of nut = 1.516892e-14 at location (1.9785208 1.0023271e-06 0.5) in cell 135

volFieldValue mindomain_vector write:
    minMag() of U = 0.0061881359 at location (1.9785208 1.0023271e-06 0.5) in cell 135

volFieldValue maxdomain_scalar write:
    max() of nuTilda = 7.6369551e-05 at location (1.9785208 0.013179228 0.5) in cell 8295
    max() of nut = 7.636906e-05 at location (1.9785208 0.013179228 0.5) in cell 8295

volFieldValue maxdomain_vector write:
    maxMag() of U = 1.0040324 at location (1.9785208 0.082156882 0.5) in cell 10335

yPlus yplus_stats write:
    patch bottom y+ : min = 0.17610423, max = 0.37836231, average = 0.20461383

Time = 1991s

DILUPBiCGStab:  Solving for Ux, Initial residual = 1.3792511e-06, Final residual = 2.6927698e-11, No Iterations 3
DILUPBiCGStab:  Solving for Uy, Initial residual = 0.0010216571, Final residual = 5.9003432e-11, No Iterations 3
DICPCG:  Solving for p, Initial residual = 0.00020248881, Final residual = 1.8470192e-06, No Iterations 72
DICPCG:  Solving for p, Initial residual = 1.8427846e-06, Final residual = 1.6876558e-08, No Iterations 45
DICPCG:  Solving for p, Initial residual = 1.6876587e-08, Final residual = 9.2871084e-09, No Iterations 10
time step continuity errors : sum local = 4.2900198e-10, global = -3.0650168e-11, cumulative = -5.7741149e-10
DILUPBiCGStab:  Solving for nuTilda, Initial residual = 3.7993442e-07, Final residual = 2.3724641e-13, No Iterations 3
ExecutionTime = 142.86894 s  ClockTime = 143 s



volFieldValue mindomain_scalar write:
    min() of nuTilda = 1.4436271e-08 at location (1.9785208 1.0023271e-06 0.5) in cell 135
    min() of nut = 1.516892e-14 at location (1.9785208 1.0023271e-06 0.5) in cell 135

volFieldValue mindomain_vector write:
    minMag() of U = 0.0061881359 at location (1.9785208 1.0023271e-06 0.5) in cell 135

volFieldValue maxdomain_scalar write:
    max() of nuTilda = 7.6369543e-05 at location (1.9785208 0.013179228 0.5) in cell 8295
    max() of nut = 7.6369052e-05 at location (1.9785208 0.013179228 0.5) in cell 8295

volFieldValue maxdomain_vector write:
    maxMag() of U = 1.0040331 at location (1.9785208 0.082156882 0.5) in cell 10335

yPlus yplus_stats write:
    patch bottom y+ : min = 0.17610423, max = 0.37836217, average = 0.20461382

Time = 1992s

DILUPBiCGStab:  Solving for Ux, Initial residual = 1.3785151e-06, Final residual = 2.4934544e-11, No Iterations 3
DILUPBiCGStab:  Solving for Uy, Initial residual = 0.0010243406, Final residual = 6.4785808e-11, No Iterations 3
DICPCG:  Solving for p, Initial residual = 0.00020203132, Final residual = 1.9200117e-06, No Iterations 72
DICPCG:  Solving for p, Initial residual = 1.9244237e-06, Final residual = 1.7063333e-08, No Iterations 45
DICPCG:  Solving for p, Initial residual = 1.7063328e-08, Final residual = 9.7650101e-09, No Iterations 10
time step continuity errors : sum local = 4.5003604e-10, global = 3.174612e-11, cumulative = -5.4566537e-10
DILUPBiCGStab:  Solving for nuTilda, Initial residual = 3.7716482e-07, Final residual = 1.6472094e-13, No Iterations 3
ExecutionTime = 142.93507 s  ClockTime = 143 s



volFieldValue mindomain_scalar write:
    min() of nuTilda = 1.4436271e-08 at location (1.9785208 1.0023271e-06 0.5) in cell 135
    min() of nut = 1.516892e-14 at location (1.9785208 1.0023271e-06 0.5) in cell 135

volFieldValue mindomain_vector write:
    minMag() of U = 0.0061881359 at location (1.9785208 1.0023271e-06 0.5) in cell 135

volFieldValue maxdomain_scalar write:
    max() of nuTilda = 7.6369553e-05 at location (1.9785208 0.013179228 0.5) in cell 8295
    max() of nut = 7.6369062e-05 at location (1.9785208 0.013179228 0.5) in cell 8295

volFieldValue maxdomain_vector write:
    maxMag() of U = 1.0040324 at location (1.9785208 0.082156882 0.5) in cell 10335

yPlus yplus_stats write:
    patch bottom y+ : min = 0.17610423, max = 0.37836203, average = 0.20461381

Time = 1993s

DILUPBiCGStab:  Solving for Ux, Initial residual = 1.3792005e-06, Final residual = 2.6867141e-11, No Iterations 3
DILUPBiCGStab:  Solving for Uy, Initial residual = 0.0010216542, Final residual = 5.9387007e-11, No Iterations 3
DICPCG:  Solving for p, Initial residual = 0.00020248894, Final residual = 1.849801e-06, No Iterations 72
DICPCG:  Solving for p, Initial residual = 1.8455604e-06, Final residual = 1.6909312e-08, No Iterations 45
DICPCG:  Solving for p, Initial residual = 1.6909341e-08, Final residual = 9.7861383e-09, No Iterations 6
time step continuity errors : sum local = 4.5205361e-10, global = -2.5611483e-11, cumulative = -5.7127685e-10
DILUPBiCGStab:  Solving for nuTilda, Initial residual = 3.7995151e-07, Final residual = 2.3696231e-13, No Iterations 3
ExecutionTime = 143.00032 s  ClockTime = 143 s



volFieldValue mindomain_scalar write:
    min() of nuTilda = 1.4436271e-08 at location (1.9785208 1.0023271e-06 0.5) in cell 135
    min() of nut = 1.5168919e-14 at location (1.9785208 1.0023271e-06 0.5) in cell 135

volFieldValue mindomain_vector write:
    minMag() of U = 0.0061881359 at location (1.9785208 1.0023271e-06 0.5) in cell 135

volFieldValue maxdomain_scalar write:
    max() of nuTilda = 7.6369545e-05 at location (1.9785208 0.013179228 0.5) in cell 8295
    max() of nut = 7.6369054e-05 at location (1.9785208 0.013179228 0.5) in cell 8295

volFieldValue maxdomain_vector write:
    maxMag() of U = 1.0040331 at location (1.9785208 0.082156882 0.5) in cell 10335

yPlus yplus_stats write:
    patch bottom y+ : min = 0.17610423, max = 0.37836189, average = 0.2046138

Time = 1994s

DILUPBiCGStab:  Solving for Ux, Initial residual = 1.3784501e-06, Final residual = 2.4921752e-11, No Iterations 3
DILUPBiCGStab:  Solving for Uy, Initial residual = 0.0010243514, Final residual = 6.4777634e-11, No Iterations 3
DICPCG:  Solving for p, Initial residual = 0.00020202912, Final residual = 1.9068487e-06, No Iterations 72
DICPCG:  Solving for p, Initial residual = 1.9112302e-06, Final residual = 1.7052473e-08, No Iterations 45
DICPCG:  Solving for p, Initial residual = 1.7052469e-08, Final residual = 9.7587471e-09, No Iterations 10
time step continuity errors : sum local = 4.4974721e-10, global = 3.185653e-11, cumulative = -5.3942032e-10
DILUPBiCGStab:  Solving for nuTilda, Initial residual = 3.7715575e-07, Final residual = 1.6515602e-13, No Iterations 3
ExecutionTime = 143.05652 s  ClockTime = 143 s



volFieldValue mindomain_scalar write:
    min() of nuTilda = 1.4436271e-08 at location (1.9785208 1.0023271e-06 0.5) in cell 135
    min() of nut = 1.5168919e-14 at location (1.9785208 1.0023271e-06 0.5) in cell 135

volFieldValue mindomain_vector write:
    minMag() of U = 0.0061881359 at location (1.9785208 1.0023271e-06 0.5) in cell 135

volFieldValue maxdomain_scalar write:
    max() of nuTilda = 7.6369554e-05 at location (1.9785208 0.013179228 0.5) in cell 8295
    max() of nut = 7.6369063e-05 at location (1.9785208 0.013179228 0.5) in cell 8295

volFieldValue maxdomain_vector write:
    maxMag() of U = 1.0040324 at location (1.9785208 0.082156882 0.5) in cell 10335

yPlus yplus_stats write:
    patch bottom y+ : min = 0.17610423, max = 0.37836176, average = 0.2046138

Time = 1995s

DILUPBiCGStab:  Solving for Ux, Initial residual = 1.3791693e-06, Final residual = 2.6872378e-11, No Iterations 3
DILUPBiCGStab:  Solving for Uy, Initial residual = 0.0010216537, Final residual = 5.8911436e-11, No Iterations 3
DICPCG:  Solving for p, Initial residual = 0.00020248842, Final residual = 1.8510263e-06, No Iterations 72
DICPCG:  Solving for p, Initial residual = 1.8467829e-06, Final residual = 1.6992845e-08, No Iterations 45
DICPCG:  Solving for p, Initial residual = 1.6992873e-08, Final residual = 9.9885047e-09, No Iterations 6
time step continuity errors : sum local = 4.6140161e-10, global = -2.6294124e-11, cumulative = -5.6571445e-10
DILUPBiCGStab:  Solving for nuTilda, Initial residual = 3.7997133e-07, Final residual = 2.3670955e-13, No Iterations 3
ExecutionTime = 143.11794 s  ClockTime = 143 s



volFieldValue mindomain_scalar write:
    min() of nuTilda = 1.4436271e-08 at location (1.9785208 1.0023271e-06 0.5) in cell 135
    min() of nut = 1.5168919e-14 at location (1.9785208 1.0023271e-06 0.5) in cell 135

volFieldValue mindomain_vector write:
    minMag() of U = 0.0061881358 at location (1.9785208 1.0023271e-06 0.5) in cell 135

volFieldValue maxdomain_scalar write:
    max() of nuTilda = 7.6369547e-05 at location (1.9785208 0.013179228 0.5) in cell 8295
    max() of nut = 7.6369056e-05 at location (1.9785208 0.013179228 0.5) in cell 8295

volFieldValue maxdomain_vector write:
    maxMag() of U = 1.0040331 at location (1.9785208 0.082156882 0.5) in cell 10335

yPlus yplus_stats write:
    patch bottom y+ : min = 0.17610423, max = 0.37836162, average = 0.20461379

Time = 1996s

DILUPBiCGStab:  Solving for Ux, Initial residual = 1.3784135e-06, Final residual = 2.490723e-11, No Iterations 3
DILUPBiCGStab:  Solving for Uy, Initial residual = 0.0010243569, Final residual = 6.4797313e-11, No Iterations 3
DICPCG:  Solving for p, Initial residual = 0.00020202842, Final residual = 1.8870451e-06, No Iterations 72
DICPCG:  Solving for p, Initial residual = 1.8913812e-06, Final residual = 1.7060072e-08, No Iterations 45
DICPCG:  Solving for p, Initial residual = 1.7060064e-08, Final residual = 9.7565239e-09, No Iterations 10
time step continuity errors : sum local = 4.4964484e-10, global = 3.1886413e-11, cumulative = -5.3382803e-10
DILUPBiCGStab:  Solving for nuTilda, Initial residual = 3.7714247e-07, Final residual = 1.655175e-13, No Iterations 3
ExecutionTime = 143.17944 s  ClockTime = 143 s



volFieldValue mindomain_scalar write:
    min() of nuTilda = 1.4436271e-08 at location (1.9785208 1.0023271e-06 0.5) in cell 135
    min() of nut = 1.5168919e-14 at location (1.9785208 1.0023271e-06 0.5) in cell 135

volFieldValue mindomain_vector write:
    minMag() of U = 0.0061881358 at location (1.9785208 1.0023271e-06 0.5) in cell 135

volFieldValue maxdomain_scalar write:
    max() of nuTilda = 7.6369556e-05 at location (1.9785208 0.013179228 0.5) in cell 8295
    max() of nut = 7.6369065e-05 at location (1.9785208 0.013179228 0.5) in cell 8295

volFieldValue maxdomain_vector write:
    maxMag() of U = 1.0040324 at location (1.9785208 0.082156882 0.5) in cell 10335

yPlus yplus_stats write:
    patch bottom y+ : min = 0.17610423, max = 0.37836148, average = 0.20461378

Time = 1997s

DILUPBiCGStab:  Solving for Ux, Initial residual = 1.3791479e-06, Final residual = 2.6853077e-11, No Iterations 3
DILUPBiCGStab:  Solving for Uy, Initial residual = 0.0010216598, Final residual = 5.9075501e-11, No Iterations 3
DICPCG:  Solving for p, Initial residual = 0.00020248833, Final residual = 1.8490093e-06, No Iterations 72
DICPCG:  Solving for p, Initial residual = 1.8447706e-06, Final residual = 1.7021909e-08, No Iterations 45
DICPCG:  Solving for p, Initial residual = 1.7021938e-08, Final residual = 9.6089061e-09, No Iterations 10
time step continuity errors : sum local = 4.4386676e-10, global = -3.1632392e-11, cumulative = -5.6546043e-10
DILUPBiCGStab:  Solving for nuTilda, Initial residual = 3.7999182e-07, Final residual = 2.3652983e-13, No Iterations 3
ExecutionTime = 143.2414 s  ClockTime = 143 s



volFieldValue mindomain_scalar write:
    min() of nuTilda = 1.4436271e-08 at location (1.9785208 1.0023271e-06 0.5) in cell 135
    min() of nut = 1.5168919e-14 at location (1.9785208 1.0023271e-06 0.5) in cell 135

volFieldValue mindomain_vector write:
    minMag() of U = 0.0061881358 at location (1.9785208 1.0023271e-06 0.5) in cell 135

volFieldValue maxdomain_scalar write:
    max() of nuTilda = 7.6369548e-05 at location (1.9785208 0.013179228 0.5) in cell 8295
    max() of nut = 7.6369057e-05 at location (1.9785208 0.013179228 0.5) in cell 8295

volFieldValue maxdomain_vector write:
    maxMag() of U = 1.0040331 at location (1.9785208 0.082156882 0.5) in cell 10335

yPlus yplus_stats write:
    patch bottom y+ : min = 0.17610423, max = 0.37836135, average = 0.20461377

Time = 1998s

DILUPBiCGStab:  Solving for Ux, Initial residual = 1.3783896e-06, Final residual = 2.4887605e-11, No Iterations 3
DILUPBiCGStab:  Solving for Uy, Initial residual = 0.0010243583, Final residual = 6.4707868e-11, No Iterations 3
DICPCG:  Solving for p, Initial residual = 0.0002020283, Final residual = 1.8933133e-06, No Iterations 72
DICPCG:  Solving for p, Initial residual = 1.8976639e-06, Final residual = 1.7130666e-08, No Iterations 45
DICPCG:  Solving for p, Initial residual = 1.713066e-08, Final residual = 9.6813074e-09, No Iterations 10
time step continuity errors : sum local = 4.4617827e-10, global = 3.157695e-11, cumulative = -5.3388347e-10
DILUPBiCGStab:  Solving for nuTilda, Initial residual = 3.7712665e-07, Final residual = 1.6579337e-13, No Iterations 3
ExecutionTime = 143.30352 s  ClockTime = 143 s



volFieldValue mindomain_scalar write:
    min() of nuTilda = 1.4436271e-08 at location (1.9785208 1.0023271e-06 0.5) in cell 135
    min() of nut = 1.5168919e-14 at location (1.9785208 1.0023271e-06 0.5) in cell 135

volFieldValue mindomain_vector write:
    minMag() of U = 0.0061881358 at location (1.9785208 1.0023271e-06 0.5) in cell 135

volFieldValue maxdomain_scalar write:
    max() of nuTilda = 7.6369557e-05 at location (1.9785208 0.013179228 0.5) in cell 8295
    max() of nut = 7.6369066e-05 at location (1.9785208 0.013179228 0.5) in cell 8295

volFieldValue maxdomain_vector write:
    maxMag() of U = 1.0040324 at location (1.9785208 0.082156882 0.5) in cell 10335

yPlus yplus_stats write:
    patch bottom y+ : min = 0.17610423, max = 0.37836121, average = 0.20461376

Time = 1999s

DILUPBiCGStab:  Solving for Ux, Initial residual = 1.379133e-06, Final residual = 2.6836916e-11, No Iterations 3
DILUPBiCGStab:  Solving for Uy, Initial residual = 0.0010216654, Final residual = 5.9420623e-11, No Iterations 3
DICPCG:  Solving for p, Initial residual = 0.00020248821, Final residual = 1.8468407e-06, No Iterations 72
DICPCG:  Solving for p, Initial residual = 1.8426069e-06, Final residual = 1.6985818e-08, No Iterations 45
DICPCG:  Solving for p, Initial residual = 1.6985848e-08, Final residual = 9.9827491e-09, No Iterations 6
time step continuity errors : sum local = 4.6113573e-10, global = -2.6337869e-11, cumulative = -5.6022134e-10
DILUPBiCGStab:  Solving for nuTilda, Initial residual = 3.8001251e-07, Final residual = 2.3636706e-13, No Iterations 3
ExecutionTime = 143.36047 s  ClockTime = 143 s



volFieldValue mindomain_scalar write:
    min() of nuTilda = 1.4436271e-08 at location (1.9785208 1.0023271e-06 0.5) in cell 135
    min() of nut = 1.5168919e-14 at location (1.9785208 1.0023271e-06 0.5) in cell 135

volFieldValue mindomain_vector write:
    minMag() of U = 0.0061881358 at location (1.9785208 1.0023271e-06 0.5) in cell 135

volFieldValue maxdomain_scalar write:
    max() of nuTilda = 7.636955e-05 at location (1.9785208 0.013179228 0.5) in cell 8295
    max() of nut = 7.6369059e-05 at location (1.9785208 0.013179228 0.5) in cell 8295

volFieldValue maxdomain_vector write:
    maxMag() of U = 1.0040331 at location (1.9785208 0.082156882 0.5) in cell 10335

yPlus yplus_stats write:
    patch bottom y+ : min = 0.17610423, max = 0.37836108, average = 0.20461376

Time = 2000s

DILUPBiCGStab:  Solving for Ux, Initial residual = 1.378338e-06, Final residual = 2.4860144e-11, No Iterations 3
DILUPBiCGStab:  Solving for Uy, Initial residual = 0.0010243606, Final residual = 6.4006797e-11, No Iterations 3
DICPCG:  Solving for p, Initial residual = 0.00020202562, Final residual = 1.8876692e-06, No Iterations 72
DICPCG:  Solving for p, Initial residual = 1.8920067e-06, Final residual = 1.7084793e-08, No Iterations 45
DICPCG:  Solving for p, Initial residual = 1.7084787e-08, Final residual = 9.7842259e-09, No Iterations 10
time step continuity errors : sum local = 4.5092131e-10, global = 3.1927863e-11, cumulative = -5.2829348e-10
DILUPBiCGStab:  Solving for nuTilda, Initial residual = 3.7710904e-07, Final residual = 1.659329e-13, No Iterations 3
ExecutionTime = 143.45424 s  ClockTime = 144 s



volFieldValue mindomain_scalar write:
    min() of nuTilda = 1.4436271e-08 at location (1.9785208 1.0023271e-06 0.5) in cell 135
    min() of nut = 1.5168919e-14 at location (1.9785208 1.0023271e-06 0.5) in cell 135

volFieldValue mindomain_vector write:
    minMag() of U = 0.0061881358 at location (1.9785208 1.0023271e-06 0.5) in cell 135

volFieldValue maxdomain_scalar write:
    max() of nuTilda = 7.6369559e-05 at location (1.9785208 0.013179228 0.5) in cell 8295
    max() of nut = 7.6369068e-05 at location (1.9785208 0.013179228 0.5) in cell 8295

volFieldValue maxdomain_vector write:
    maxMag() of U = 1.0040324 at location (1.9785208 0.082156882 0.5) in cell 10335

yPlus yplus_stats write:
    patch bottom y+ : min = 0.17610423, max = 0.37836094, average = 0.20461375

End

