/*---------------------------------------------------------------------------*\
  =========                 |
  \\      /  F ield         | OpenFOAM: The Open Source CFD Toolbox
   \\    /   O peration     | Website:  https://openfoam.org
    \\  /    A nd           | Version:  12
     \\/     M anipulation  |
\*---------------------------------------------------------------------------*/
Build  : 12-86e126a7bc4d
Exec   : foamRun
Date   : Jun 14 2026
Time   : 22:07:08
Host   : "NotebookdoDan"
PID    : 72268
I/O    : uncollated
Case   : /home/danilom/OpenFOAM/danilom-12/run/GT2/RANS/SA_LRN
nProcs : 1
sigFpe : Enabling floating point exception trapping (FOAM_SIGFPE).
fileModificationChecking : Monitoring run-time modified files using timeStampMaster (fileModificationSkew 10)
allowSystemOperations : Allowing user-supplied system call operations

// * * * * * * * * * * * * * * * * * * * * * * * * * * * * * * * * * * * * * //
Create time

Create mesh for time = 0

Selecting solver incompressibleFluid
Selecting viscosity model Newtonian
Selecting turbulence model type RAS
Selecting RAS turbulence model SpalartAllmaras
RAS
{
    RASModel        SpalartAllmaras;
    turbulence      on;
    printCoeffs     on;
    sigmaNut        0.66666;
    kappa           0.41;
    Cb1             0.1355;
    Cb2             0.622;
    Cw2             0.3;
    Cw3             2;
    Cv1             7.1;
    Cs              0.3;
}

No MRF models present


SIMPLE: Convergence criteria found
        p: tolerance 1e-06
        U: tolerance 1e-06
        "(nuTilda)": tolerance 1e-06


SIMPLE: Operating solver in steady-state mode with 1 outer corrector
SIMPLE: Operating solver in SIMPLE mode



Starting time loop

    - selecting all cells
    - selected 7480 cell(s) with volume 2.33333


    - selecting all cells
    - selected 7480 cell(s) with volume 2.33333


    - selecting all cells
    - selected 7480 cell(s) with volume 2.33333


    - selecting all cells
    - selected 7480 cell(s) with volume 2.33333


    - selecting all cells
    - selected 7480 cell(s) with volume 2.33333


    - selecting all cells
    - selected 7480 cell(s) with volume 2.33333




volFieldValue mindomain_scalar write:
    min() of nuTilda = 2e-06 at location (0.0015663151 0.0004006648 0.5) in cell 0
    min() of nut = 1.4728506e-06 at location (0.0015663151 0.0004006648 0.5) in cell 0

volFieldValue mindomain_vector write:
    minMag() of U = 1 at location (0.0015663151 0.0004006648 0.5) in cell 0

volFieldValue maxdomain_scalar write:
    max() of nuTilda = 2e-06 at location (0.0015663151 0.0004006648 0.5) in cell 0
    max() of nut = 1.4728506e-06 at location (0.0015663151 0.0004006648 0.5) in cell 0

volFieldValue maxdomain_vector write:
    maxMag() of U = 1 at location (0.0015663151 0.0004006648 0.5) in cell 0

yPlus yplus_stats write:
    patch bottom y+ : min = 117.66552, max = 117.66552, average = 117.66552

Time = 1s

DILUPBiCGStab:  Solving for Ux, Initial residual = 1, Final residual = 3.3527251e-09, No Iterations 4
DILUPBiCGStab:  Solving for Uy, Initial residual = 0.99997933, Final residual = 8.5046402e-09, No Iterations 4
DICPCG:  Solving for p, Initial residual = 1, Final residual = 0.0088549114, No Iterations 82
DICPCG:  Solving for p, Initial residual = 5.8797303e-05, Final residual = 4.6712219e-07, No Iterations 36
DICPCG:  Solving for p, Initial residual = 4.6714813e-07, Final residual = 8.915015e-09, No Iterations 62
time step continuity errors : sum local = 2.7756026e-10, global = 7.5821128e-12, cumulative = 7.5821128e-12
Selecting patchDistMethod meshWave
DILUPBiCGStab:  Solving for nuTilda, Initial residual = 1, Final residual = 4.78189e-09, No Iterations 4
ExecutionTime = 0.104414 s  ClockTime = 0 s



volFieldValue mindomain_scalar write:
    min() of nuTilda = 1.2471219e-06 at location (0.014887743 0.0004006648 0.5) in cell 4
    min() of nut = 9.1841209e-07 at location (0.014887743 0.0004006648 0.5) in cell 4

volFieldValue mindomain_vector write:
    minMag() of U = 0.61975226 at location (1.9686737 0.0004006648 0.5) in cell 99

volFieldValue maxdomain_scalar write:
    max() of nuTilda = 1.5276967e-05 at location (1.9686737 0.0004006648 0.5) in cell 99
    max() of nut = 1.1250345e-05 at location (1.9686737 0.0004006648 0.5) in cell 99

volFieldValue maxdomain_vector write:
    maxMag() of U = 1.0006515 at location (1.9686737 0.033314791 0.5) in cell 2699

yPlus yplus_stats write:
    patch bottom y+ : min = 77.988338, max = 116.81159, average = 98.558974

Time = 2s

DILUPBiCGStab:  Solving for Ux, Initial residual = 0.068549794, Final residual = 6.741167e-09, No Iterations 5
DILUPBiCGStab:  Solving for Uy, Initial residual = 0.33188055, Final residual = 2.3323022e-09, No Iterations 5
DICPCG:  Solving for p, Initial residual = 0.025128874, Final residual = 0.00022497525, No Iterations 78
DICPCG:  Solving for p, Initial residual = 0.00017012535, Final residual = 1.5681871e-06, No Iterations 40
DICPCG:  Solving for p, Initial residual = 1.5682937e-06, Final residual = 1.4412534e-08, No Iterations 69
time step continuity errors : sum local = 6.0441485e-10, global = 1.4380514e-11, cumulative = 2.1962627e-11
DILUPBiCGStab:  Solving for nuTilda, Initial residual = 0.40756597, Final residual = 1.553956e-09, No Iterations 3
ExecutionTime = 0.131586 s  ClockTime = 0 s



volFieldValue mindomain_scalar write:
    min() of nuTilda = 1.2886036e-06 at location (0.014887743 0.0004006648 0.5) in cell 4
    min() of nut = 5.2040051e-07 at location (0.014887743 0.0004006648 0.5) in cell 4

volFieldValue mindomain_vector write:
    minMag() of U = 0.59069856 at location (1.9686737 0.0004006648 0.5) in cell 99

volFieldValue maxdomain_scalar write:
    max() of nuTilda = 1.2072547e-05 at location (1.9686737 0.0020572852 0.5) in cell 299
    max() of nut = 1.1939073e-05 at location (1.9686737 0.0020572852 0.5) in cell 299

volFieldValue maxdomain_vector write:
    maxMag() of U = 1.0008851 at location (1.9686737 0.1761657 0.5) in cell 6479

yPlus yplus_stats write:
    patch bottom y+ : min = 74.862151, max = 116.32112, average = 87.095017

Time = 3s

DILUPBiCGStab:  Solving for Ux, Initial residual = 0.035123898, Final residual = 7.6123288e-09, No Iterations 5
DILUPBiCGStab:  Solving for Uy, Initial residual = 0.22164634, Final residual = 2.4822598e-09, No Iterations 5
DICPCG:  Solving for p, Initial residual = 0.020552388, Final residual = 0.0001712924, No Iterations 73
DICPCG:  Solving for p, Initial residual = 0.00019613578, Final residual = 1.9402833e-06, No Iterations 38
DICPCG:  Solving for p, Initial residual = 1.9404795e-06, Final residual = 1.881429e-08, No Iterations 67
time step continuity errors : sum local = 6.9168342e-10, global = 4.6294129e-11, cumulative = 6.8256756e-11
DILUPBiCGStab:  Solving for nuTilda, Initial residual = 0.10802893, Final residual = 8.5968601e-09, No Iterations 3
ExecutionTime = 0.153719 s  ClockTime = 0 s



volFieldValue mindomain_scalar write:
    min() of nuTilda = 1.3046416e-06 at location (0.011404732 0.0004006648 0.5) in cell 3
    min() of nut = 5.6651936e-07 at location (0.011404732 0.0004006648 0.5) in cell 3

volFieldValue mindomain_vector write:
    minMag() of U = 0.54902163 at location (1.9686737 0.0004006648 0.5) in cell 99

volFieldValue maxdomain_scalar write:
    max() of nuTilda = 1.64039e-05 at location (1.9686737 0.0020572852 0.5) in cell 299
    max() of nut = 1.637725e-05 at location (1.9686737 0.0020572852 0.5) in cell 299

volFieldValue maxdomain_vector write:
    maxMag() of U = 1.0011973 at location (1.9069548 0.04579955 0.5) in cell 3298

yPlus yplus_stats write:
    patch bottom y+ : min = 70.34768, max = 116.37597, average = 84.225282

Time = 4s

DILUPBiCGStab:  Solving for Ux, Initial residual = 0.022544302, Final residual = 9.0120733e-09, No Iterations 5
DILUPBiCGStab:  Solving for Uy, Initial residual = 0.14297184, Final residual = 4.7562575e-09, No Iterations 5
DICPCG:  Solving for p, Initial residual = 0.020726189, Final residual = 0.00020342406, No Iterations 77
DICPCG:  Solving for p, Initial residual = 0.00021348124, Final residual = 2.0196901e-06, No Iterations 76
DICPCG:  Solving for p, Initial residual = 2.0201051e-06, Final residual = 1.6315299e-08, No Iterations 79
time step continuity errors : sum local = 5.751959e-10, global = 2.8134868e-11, cumulative = 9.6391624e-11
DILUPBiCGStab:  Solving for nuTilda, Initial residual = 0.13283583, Final residual = 7.4038303e-10, No Iterations 4
ExecutionTime = 0.181353 s  ClockTime = 0 s



volFieldValue mindomain_scalar write:
    min() of nuTilda = 1.2870788e-06 at location (0.011404732 0.0004006648 0.5) in cell 3
    min() of nut = 5.6218778e-07 at location (0.011404732 0.0004006648 0.5) in cell 3

volFieldValue mindomain_vector write:
    minMag() of U = 0.57062262 at location (1.9686737 0.0004006648 0.5) in cell 99

volFieldValue maxdomain_scalar write:
    max() of nuTilda = 1.8503989e-05 at location (1.9686737 0.0029273097 0.5) in cell 399
    max() of nut = 1.8490245e-05 at location (1.9686737 0.0029273097 0.5) in cell 399

volFieldValue maxdomain_vector write:
    maxMag() of U = 1.0014707 at location (1.9069548 0.039249867 0.5) in cell 2998

yPlus yplus_stats write:
    patch bottom y+ : min = 72.692076, max = 116.33748, average = 83.069544

Time = 5s

DILUPBiCGStab:  Solving for Ux, Initial residual = 0.015408457, Final residual = 6.1539801e-09, No Iterations 6
DILUPBiCGStab:  Solving for Uy, Initial residual = 0.10349806, Final residual = 5.1534377e-09, No Iterations 5
DICPCG:  Solving for p, Initial residual = 0.018111204, Final residual = 0.00017204346, No Iterations 64
DICPCG:  Solving for p, Initial residual = 0.0001771145, Final residual = 1.5946043e-06, No Iterations 68
DICPCG:  Solving for p, Initial residual = 1.5949171e-06, Final residual = 1.4050733e-08, No Iterations 74
time step continuity errors : sum local = 4.815293e-10, global = -8.3127926e-12, cumulative = 8.8078831e-11
DILUPBiCGStab:  Solving for nuTilda, Initial residual = 0.05971147, Final residual = 4.2542687e-09, No Iterations 4
ExecutionTime = 0.205833 s  ClockTime = 0 s



volFieldValue mindomain_scalar write:
    min() of nuTilda = 1.271796e-06 at location (0.011404732 0.0004006648 0.5) in cell 3
    min() of nut = 5.4282561e-07 at location (0.011404732 0.0004006648 0.5) in cell 3

volFieldValue mindomain_vector write:
    minMag() of U = 0.53463941 at location (1.9686737 0.0004006648 0.5) in cell 99

volFieldValue maxdomain_scalar write:
    max() of nuTilda = 2.1333107e-05 at location (1.9686737 0.0029273097 0.5) in cell 399
    max() of nut = 2.132347e-05 at location (1.9686737 0.0029273097 0.5) in cell 399

volFieldValue maxdomain_vector write:
    maxMag() of U = 1.0017752 at location (1.2952458 0.021542526 0.5) in cell 1986

yPlus yplus_stats write:
    patch bottom y+ : min = 68.78109, max = 116.30078, average = 82.404919

Time = 6s

DILUPBiCGStab:  Solving for Ux, Initial residual = 0.013689802, Final residual = 3.2638832e-09, No Iterations 6
DILUPBiCGStab:  Solving for Uy, Initial residual = 0.075777112, Final residual = 6.0572803e-09, No Iterations 5
DICPCG:  Solving for p, Initial residual = 0.016477193, Final residual = 0.00015906113, No Iterations 63
DICPCG:  Solving for p, Initial residual = 0.0001612122, Final residual = 1.5721991e-06, No Iterations 73
DICPCG:  Solving for p, Initial residual = 1.5727295e-06, Final residual = 9.9437096e-09, No Iterations 78
time step continuity errors : sum local = 3.3753112e-10, global = 4.6004596e-12, cumulative = 9.2679291e-11
DILUPBiCGStab:  Solving for nuTilda, Initial residual = 0.089440369, Final residual = 4.7859144e-09, No Iterations 4
ExecutionTime = 0.232443 s  ClockTime = 0 s



volFieldValue mindomain_scalar write:
    min() of nuTilda = 1.2757154e-06 at location (0.011404732 0.0004006648 0.5) in cell 3
    min() of nut = 5.3334483e-07 at location (0.011404732 0.0004006648 0.5) in cell 3

volFieldValue mindomain_vector write:
    minMag() of U = 0.56362591 at location (1.9686737 0.0004006648 0.5) in cell 99

volFieldValue maxdomain_scalar write:
    max() of nuTilda = 2.3567921e-05 at location (1.9686737 0.0038263852 0.5) in cell 499
    max() of nut = 2.3560942e-05 at location (1.9686737 0.0038263852 0.5) in cell 499

volFieldValue maxdomain_vector write:
    maxMag() of U = 1.0020259 at location (1.4750246 0.021542526 0.5) in cell 1990

yPlus yplus_stats write:
    patch bottom y+ : min = 71.933805, max = 116.41766, average = 82.287117

Time = 7s

DILUPBiCGStab:  Solving for Ux, Initial residual = 0.010671749, Final residual = 5.2322362e-09, No Iterations 6
DILUPBiCGStab:  Solving for Uy, Initial residual = 0.056374852, Final residual = 4.0020795e-09, No Iterations 6
DICPCG:  Solving for p, Initial residual = 0.017054486, Final residual = 0.00017022526, No Iterations 57
DICPCG:  Solving for p, Initial residual = 0.00017172732, Final residual = 1.537292e-06, No Iterations 72
DICPCG:  Solving for p, Initial residual = 1.5397416e-06, Final residual = 1.3772647e-08, No Iterations 35
time step continuity errors : sum local = 4.6377283e-10, global = 3.359775e-11, cumulative = 1.2627704e-10
DILUPBiCGStab:  Solving for nuTilda, Initial residual = 0.04655698, Final residual = 8.1437163e-09, No Iterations 4
ExecutionTime = 0.254532 s  ClockTime = 0 s



volFieldValue mindomain_scalar write:
    min() of nuTilda = 1.2846693e-06 at location (0.011404732 0.0004006648 0.5) in cell 3
    min() of nut = 5.3997548e-07 at location (0.011404732 0.0004006648 0.5) in cell 3

volFieldValue mindomain_vector write:
    minMag() of U = 0.52871017 at location (1.9686737 0.0004006648 0.5) in cell 99

volFieldValue maxdomain_scalar write:
    max() of nuTilda = 2.5868283e-05 at location (1.9686737 0.0047554818 0.5) in cell 599
    max() of nut = 2.5862352e-05 at location (1.9686737 0.0047554818 0.5) in cell 599

volFieldValue maxdomain_vector write:
    maxMag() of U = 1.0023058 at location (1.9069548 0.023063183 0.5) in cell 2098

yPlus yplus_stats write:
    patch bottom y+ : min = 68.133887, max = 116.46644, average = 82.161625

Time = 8s

DILUPBiCGStab:  Solving for Ux, Initial residual = 0.0098125049, Final residual = 8.1905329e-09, No Iterations 5
DILUPBiCGStab:  Solving for Uy, Initial residual = 0.046599306, Final residual = 6.96054e-09, No Iterations 5
DICPCG:  Solving for p, Initial residual = 0.014782176, Final residual = 0.00013441697, No Iterations 31
DICPCG:  Solving for p, Initial residual = 0.00013428057, Final residual = 1.1085022e-06, No Iterations 68
DICPCG:  Solving for p, Initial residual = 1.1079143e-06, Final residual = 9.9471002e-09, No Iterations 31
time step continuity errors : sum local = 3.3643905e-10, global = -1.6965483e-11, cumulative = 1.0931156e-10
DILUPBiCGStab:  Solving for nuTilda, Initial residual = 0.058574451, Final residual = 4.0533991e-09, No Iterations 4
ExecutionTime = 0.272666 s  ClockTime = 0 s



volFieldValue mindomain_scalar write:
    min() of nuTilda = 1.2862938e-06 at location (0.011404732 0.0004006648 0.5) in cell 3
    min() of nut = 5.4724518e-07 at location (0.011404732 0.0004006648 0.5) in cell 3

volFieldValue mindomain_vector write:
    minMag() of U = 0.55573411 at location (1.9686737 0.0004006648 0.5) in cell 99

volFieldValue maxdomain_scalar write:
    max() of nuTilda = 2.8002868e-05 at location (1.9686737 0.0047554818 0.5) in cell 599
    max() of nut = 2.7998237e-05 at location (1.9686737 0.0047554818 0.5) in cell 599

volFieldValue maxdomain_vector write:
    maxMag() of U = 1.0025166 at location (1.6779355 0.017269069 0.5) in cell 1694

yPlus yplus_stats write:
    patch bottom y+ : min = 71.077276, max = 116.44044, average = 82.168435

Time = 9s

DILUPBiCGStab:  Solving for Ux, Initial residual = 0.008113408, Final residual = 4.2674811e-09, No Iterations 6
DILUPBiCGStab:  Solving for Uy, Initial residual = 0.039157411, Final residual = 5.4131953e-09, No Iterations 6
DICPCG:  Solving for p, Initial residual = 0.014377437, Final residual = 0.00014283502, No Iterations 34
DICPCG:  Solving for p, Initial residual = 0.0001426523, Final residual = 1.0980041e-06, No Iterations 78
DICPCG:  Solving for p, Initial residual = 1.0996326e-06, Final residual = 1.0191528e-08, No Iterations 35
time step continuity errors : sum local = 3.4527182e-10, global = 6.5177667e-12, cumulative = 1.1582933e-10
DILUPBiCGStab:  Solving for nuTilda, Initial residual = 0.035925656, Final residual = 2.135988e-09, No Iterations 4
ExecutionTime = 0.296796 s  ClockTime = 0 s



volFieldValue mindomain_scalar write:
    min() of nuTilda = 1.2823591e-06 at location (0.011404732 0.0004006648 0.5) in cell 3
    min() of nut = 5.4675992e-07 at location (0.011404732 0.0004006648 0.5) in cell 3

volFieldValue mindomain_vector write:
    minMag() of U = 0.52474041 at location (1.9686737 0.0004006648 0.5) in cell 99

volFieldValue maxdomain_scalar write:
    max() of nuTilda = 2.9962901e-05 at location (1.9686737 0.0057156019 0.5) in cell 699
    max() of nut = 2.9958819e-05 at location (1.9686737 0.0057156019 0.5) in cell 699

volFieldValue maxdomain_vector write:
    maxMag() of U = 1.002733 at location (1.7889812 0.018647031 0.5) in cell 1796

yPlus yplus_stats write:
    patch bottom y+ : min = 67.70012, max = 116.32693, average = 82.202545

Time = 10s

DILUPBiCGStab:  Solving for Ux, Initial residual = 0.0076865523, Final residual = 2.663522e-09, No Iterations 6
DILUPBiCGStab:  Solving for Uy, Initial residual = 0.033681956, Final residual = 9.1416164e-09, No Iterations 5
DICPCG:  Solving for p, Initial residual = 0.012916092, Final residual = 0.00011507154, No Iterations 61
DICPCG:  Solving for p, Initial residual = 0.00011376823, Final residual = 8.077001e-07, No Iterations 76
DICPCG:  Solving for p, Initial residual = 8.0736529e-07, Final residual = 9.1646741e-09, No Iterations 32
time step continuity errors : sum local = 3.1477979e-10, global = -4.3397127e-12, cumulative = 1.1148961e-10
DILUPBiCGStab:  Solving for nuTilda, Initial residual = 0.044214099, Final residual = 6.5530334e-09, No Iterations 4
ExecutionTime = 0.318134 s  ClockTime = 0 s



volFieldValue mindomain_scalar write:
    min() of nuTilda = 1.2771229e-06 at location (0.011404732 0.0004006648 0.5) in cell 3
    min() of nut = 5.4165851e-07 at location (0.011404732 0.0004006648 0.5) in cell 3

volFieldValue mindomain_vector write:
    minMag() of U = 0.55168934 at location (1.9686737 0.0004006648 0.5) in cell 99

volFieldValue maxdomain_scalar write:
    max() of nuTilda = 3.2010113e-05 at location (1.9686737 0.0057156019 0.5) in cell 699
    max() of nut = 3.2006706e-05 at location (1.9686737 0.0057156019 0.5) in cell 699

volFieldValue maxdomain_vector write:
    maxMag() of U = 1.0028745 at location (1.9686737 0.020071004 0.5) in cell 1899

yPlus yplus_stats write:
    patch bottom y+ : min = 70.637758, max = 116.29469, average = 82.245116

Time = 11s

DILUPBiCGStab:  Solving for Ux, Initial residual = 0.0065448254, Final residual = 2.832607e-09, No Iterations 6
DILUPBiCGStab:  Solving for Uy, Initial residual = 0.028147864, Final residual = 6.4461349e-09, No Iterations 6
DICPCG:  Solving for p, Initial residual = 0.013010333, Final residual = 0.00011868334, No Iterations 62
DICPCG:  Solving for p, Initial residual = 0.00011770718, Final residual = 1.0548673e-06, No Iterations 74
DICPCG:  Solving for p, Initial residual = 1.0542882e-06, Final residual = 9.7308512e-09, No Iterations 41
time step continuity errors : sum local = 3.3755716e-10, global = -3.8596259e-11, cumulative = 7.2893353e-11
DILUPBiCGStab:  Solving for nuTilda, Initial residual = 0.028835998, Final residual = 5.1410979e-09, No Iterations 4
ExecutionTime = 0.342855 s  ClockTime = 0 s



volFieldValue mindomain_scalar write:
    min() of nuTilda = 1.2742768e-06 at location (0.011404732 0.0004006648 0.5) in cell 3
    min() of nut = 5.3663472e-07 at location (0.011404732 0.0004006648 0.5) in cell 3

volFieldValue mindomain_vector write:
    minMag() of U = 0.52152851 at location (1.9686737 0.0004006648 0.5) in cell 99

volFieldValue maxdomain_scalar write:
    max() of nuTilda = 3.3860162e-05 at location (1.9686737 0.0057156019 0.5) in cell 699
    max() of nut = 3.3857206e-05 at location (1.9686737 0.0057156019 0.5) in cell 699

volFieldValue maxdomain_vector write:
    maxMag() of U = 1.0029928 at location (1.7889812 0.020071004 0.5) in cell 1896

yPlus yplus_stats write:
    patch bottom y+ : min = 67.348895, max = 116.29672, average = 82.309931

Time = 12s

DILUPBiCGStab:  Solving for Ux, Initial residual = 0.0064578076, Final residual = 1.3796562e-09, No Iterations 6
DILUPBiCGStab:  Solving for Uy, Initial residual = 0.024208967, Final residual = 5.888343e-09, No Iterations 6
DICPCG:  Solving for p, Initial residual = 0.013044311, Final residual = 0.00012390624, No Iterations 62
DICPCG:  Solving for p, Initial residual = 0.0001215575, Final residual = 9.9481303e-07, No Iterations 71
DICPCG:  Solving for p, Initial residual = 9.9465631e-07, Final residual = 9.0440474e-09, No Iterations 62
time step continuity errors : sum local = 3.1975125e-10, global = 1.189291e-11, cumulative = 8.4786263e-11
DILUPBiCGStab:  Solving for nuTilda, Initial residual = 0.035901044, Final residual = 7.3131048e-09, No Iterations 4
ExecutionTime = 0.372386 s  ClockTime = 0 s



volFieldValue mindomain_scalar write:
    min() of nuTilda = 1.2750166e-06 at location (0.011404732 0.0004006648 0.5) in cell 3
    min() of nut = 5.3486703e-07 at location (0.011404732 0.0004006648 0.5) in cell 3

volFieldValue mindomain_vector write:
    minMag() of U = 0.54928092 at location (1.9686737 0.0004006648 0.5) in cell 99

volFieldValue maxdomain_scalar write:
    max() of nuTilda = 3.5668149e-05 at location (1.9686737 0.0067077814 0.5) in cell 799
    max() of nut = 3.5665476e-05 at location (1.9686737 0.0067077814 0.5) in cell 799

volFieldValue maxdomain_vector write:
    maxMag() of U = 1.0030609 at location (1.9686737 0.023063183 0.5) in cell 2099

yPlus yplus_stats write:
    patch bottom y+ : min = 70.375881, max = 116.30386, average = 82.360295

Time = 13s

DILUPBiCGStab:  Solving for Ux, Initial residual = 0.0055729579, Final residual = 8.5346441e-09, No Iterations 6
DILUPBiCGStab:  Solving for Uy, Initial residual = 0.020276526, Final residual = 6.3420223e-09, No Iterations 6
DICPCG:  Solving for p, Initial residual = 0.01270924, Final residual = 0.00011566903, No Iterations 63
DICPCG:  Solving for p, Initial residual = 0.00011391422, Final residual = 1.0246337e-06, No Iterations 74
DICPCG:  Solving for p, Initial residual = 1.0243609e-06, Final residual = 9.8999785e-09, No Iterations 68
time step continuity errors : sum local = 3.5553105e-10, global = 5.2923318e-12, cumulative = 9.0078595e-11
DILUPBiCGStab:  Solving for nuTilda, Initial residual = 0.024451257, Final residual = 8.4914399e-09, No Iterations 4
ExecutionTime = 0.397837 s  ClockTime = 0 s



volFieldValue mindomain_scalar write:
    min() of nuTilda = 1.276404e-06 at location (0.011404732 0.0004006648 0.5) in cell 3
    min() of nut = 5.359903e-07 at location (0.011404732 0.0004006648 0.5) in cell 3

volFieldValue mindomain_vector write:
    minMag() of U = 0.51915382 at location (1.9686737 0.0004006648 0.5) in cell 99

volFieldValue maxdomain_scalar write:
    max() of nuTilda = 3.747269e-05 at location (1.9686737 0.0067077814 0.5) in cell 799
    max() of nut = 3.7470326e-05 at location (1.9686737 0.0067077814 0.5) in cell 799

volFieldValue maxdomain_vector write:
    maxMag() of U = 1.0031118 at location (1.7889812 0.023063183 0.5) in cell 2096

yPlus yplus_stats write:
    patch bottom y+ : min = 67.089065, max = 116.31056, average = 82.437584

Time = 14s

DILUPBiCGStab:  Solving for Ux, Initial residual = 0.0056632127, Final residual = 1.4453555e-09, No Iterations 6
DILUPBiCGStab:  Solving for Uy, Initial residual = 0.017779167, Final residual = 3.7724723e-09, No Iterations 6
DICPCG:  Solving for p, Initial residual = 0.011364952, Final residual = 0.00011011438, No Iterations 63
DICPCG:  Solving for p, Initial residual = 0.00010739089, Final residual = 1.0485139e-06, No Iterations 71
DICPCG:  Solving for p, Initial residual = 1.0483453e-06, Final residual = 9.9800781e-09, No Iterations 55
time step continuity errors : sum local = 3.6795752e-10, global = -2.1790122e-12, cumulative = 8.7899583e-11
DILUPBiCGStab:  Solving for nuTilda, Initial residual = 0.030453362, Final residual = 6.7940375e-09, No Iterations 4
ExecutionTime = 0.420991 s  ClockTime = 0 s



volFieldValue mindomain_scalar write:
    min() of nuTilda = 1.2767643e-06 at location (0.011404732 0.0004006648 0.5) in cell 3
    min() of nut = 5.3715656e-07 at location (0.011404732 0.0004006648 0.5) in cell 3

volFieldValue mindomain_vector write:
    minMag() of U = 0.54790775 at location (1.9686737 0.0004006648 0.5) in cell 99

volFieldValue maxdomain_scalar write:
    max() of nuTilda = 3.9119058e-05 at location (1.9686737 0.0067077814 0.5) in cell 799
    max() of nut = 3.9116929e-05 at location (1.9686737 0.0067077814 0.5) in cell 799

volFieldValue maxdomain_vector write:
    maxMag() of U = 1.0031477 at location (1.8470756 0.021542526 0.5) in cell 1997

yPlus yplus_stats write:
    patch bottom y+ : min = 70.226515, max = 116.31289, average = 82.480284

Time = 15s

DILUPBiCGStab:  Solving for Ux, Initial residual = 0.0049135395, Final residual = 5.126879e-09, No Iterations 5
DILUPBiCGStab:  Solving for Uy, Initial residual = 0.014966231, Final residual = 7.3267715e-10, No Iterations 7
DICPCG:  Solving for p, Initial residual = 0.010742943, Final residual = 9.306904e-05, No Iterations 66
DICPCG:  Solving for p, Initial residual = 9.1528047e-05, Final residual = 8.3766014e-07, No Iterations 72
DICPCG:  Solving for p, Initial residual = 8.3753219e-07, Final residual = 9.4170984e-09, No Iterations 68
time step continuity errors : sum local = 3.5323976e-10, global = -1.948356e-12, cumulative = 8.5951227e-11
DILUPBiCGStab:  Solving for nuTilda, Initial residual = 0.021160861, Final residual = 3.7492986e-09, No Iterations 4
ExecutionTime = 0.445739 s  ClockTime = 0 s



volFieldValue mindomain_scalar write:
    min() of nuTilda = 1.2770348e-06 at location (0.011404732 0.0004006648 0.5) in cell 3
    min() of nut = 5.375339e-07 at location (0.011404732 0.0004006648 0.5) in cell 3

volFieldValue mindomain_vector write:
    minMag() of U = 0.5174012 at location (1.9686737 0.0004006648 0.5) in cell 99

volFieldValue maxdomain_scalar write:
    max() of nuTilda = 4.078823e-05 at location (1.9686737 0.0077330908 0.5) in cell 899
    max() of nut = 4.0786262e-05 at location (1.9686737 0.0077330908 0.5) in cell 899

volFieldValue maxdomain_vector write:
    maxMag() of U = 1.0031945 at location (1.9069548 0.058257315 0.5) in cell 3798

yPlus yplus_stats write:
    patch bottom y+ : min = 66.897216, max = 116.31862, average = 82.554214

Time = 16s

DILUPBiCGStab:  Solving for Ux, Initial residual = 0.0050857934, Final residual = 1.1631088e-09, No Iterations 6
DILUPBiCGStab:  Solving for Uy, Initial residual = 0.013402226, Final residual = 3.1430114e-09, No Iterations 6
DICPCG:  Solving for p, Initial residual = 0.0097497191, Final residual = 8.8049446e-05, No Iterations 67
DICPCG:  Solving for p, Initial residual = 8.5954147e-05, Final residual = 7.9116113e-07, No Iterations 71
DICPCG:  Solving for p, Initial residual = 7.9109589e-07, Final residual = 9.742492e-09, No Iterations 63
time step continuity errors : sum local = 3.7479053e-10, global = 1.625941e-11, cumulative = 1.0221064e-10
DILUPBiCGStab:  Solving for nuTilda, Initial residual = 0.026742533, Final residual = 5.816687e-09, No Iterations 4
ExecutionTime = 0.472 s  ClockTime = 0 s



volFieldValue mindomain_scalar write:
    min() of nuTilda = 1.2775894e-06 at location (0.011404732 0.0004006648 0.5) in cell 3
    min() of nut = 5.3796525e-07 at location (0.011404732 0.0004006648 0.5) in cell 3

volFieldValue mindomain_vector write:
    minMag() of U = 0.54725023 at location (1.9686737 0.0004006648 0.5) in cell 99

volFieldValue maxdomain_scalar write:
    max() of nuTilda = 4.244173e-05 at location (1.9686737 0.0077330908 0.5) in cell 899
    max() of nut = 4.2439939e-05 at location (1.9686737 0.0077330908 0.5) in cell 899

volFieldValue maxdomain_vector write:
    maxMag() of U = 1.0032562 at location (1.9686737 0.050538621 0.5) in cell 3499

yPlus yplus_stats write:
    patch bottom y+ : min = 70.154978, max = 116.32224, average = 82.594466

Time = 17s

DILUPBiCGStab:  Solving for Ux, Initial residual = 0.0044333112, Final residual = 4.2996176e-09, No Iterations 5
DILUPBiCGStab:  Solving for Uy, Initial residual = 0.011023952, Final residual = 7.7594171e-09, No Iterations 6
DICPCG:  Solving for p, Initial residual = 0.0094486075, Final residual = 8.9507459e-05, No Iterations 66
DICPCG:  Solving for p, Initial residual = 8.8164253e-05, Final residual = 8.7776005e-07, No Iterations 76
DICPCG:  Solving for p, Initial residual = 8.7755864e-07, Final residual = 9.8230165e-09, No Iterations 36
time step continuity errors : sum local = 3.8392363e-10, global = -5.2238809e-11, cumulative = 4.9971828e-11
DILUPBiCGStab:  Solving for nuTilda, Initial residual = 0.018720166, Final residual = 2.5550253e-09, No Iterations 4
ExecutionTime = 0.494632 s  ClockTime = 0 s



volFieldValue mindomain_scalar write:
    min() of nuTilda = 1.2778877e-06 at location (0.011404732 0.0004006648 0.5) in cell 3
    min() of nut = 5.3849672e-07 at location (0.011404732 0.0004006648 0.5) in cell 3

volFieldValue mindomain_vector write:
    minMag() of U = 0.5161258 at location (1.9686737 0.0004006648 0.5) in cell 99

volFieldValue maxdomain_scalar write:
    max() of nuTilda = 4.397381e-05 at location (1.9686737 0.0077330908 0.5) in cell 899
    max() of nut = 4.3972164e-05 at location (1.9686737 0.0077330908 0.5) in cell 899

volFieldValue maxdomain_vector write:
    maxMag() of U = 1.0033634 at location (1.9069548 0.061003917 0.5) in cell 3898

yPlus yplus_stats write:
    patch bottom y+ : min = 66.75756, max = 116.32259, average = 82.658777

Time = 18s

DILUPBiCGStab:  Solving for Ux, Initial residual = 0.0046575697, Final residual = 9.3093897e-09, No Iterations 5
DILUPBiCGStab:  Solving for Uy, Initial residual = 0.010369269, Final residual = 8.711953e-10, No Iterations 7
DICPCG:  Solving for p, Initial residual = 0.008928208, Final residual = 7.806158e-05, No Iterations 65
DICPCG:  Solving for p, Initial residual = 7.6402092e-05, Final residual = 6.4943682e-07, No Iterations 71
DICPCG:  Solving for p, Initial residual = 6.4940207e-07, Final residual = 9.2819296e-09, No Iterations 65
time step continuity errors : sum local = 3.7109749e-10, global = 1.1391594e-11, cumulative = 6.1363422e-11
DILUPBiCGStab:  Solving for nuTilda, Initial residual = 0.024054301, Final residual = 4.6088821e-09, No Iterations 4
ExecutionTime = 0.521088 s  ClockTime = 0 s



volFieldValue mindomain_scalar write:
    min() of nuTilda = 1.2778662e-06 at location (0.011404732 0.0004006648 0.5) in cell 3
    min() of nut = 5.3870587e-07 at location (0.011404732 0.0004006648 0.5) in cell 3

volFieldValue mindomain_vector write:
    minMag() of U = 0.54711543 at location (1.9686737 0.0004006648 0.5) in cell 99

volFieldValue maxdomain_scalar write:
    max() of nuTilda = 4.5452251e-05 at location (1.9686737 0.0087926364 0.5) in cell 999
    max() of nut = 4.5450702e-05 at location (1.9686737 0.0087926364 0.5) in cell 999

volFieldValue maxdomain_vector write:
    maxMag() of U = 1.0034328 at location (1.9686737 0.058257315 0.5) in cell 3799

yPlus yplus_stats write:
    patch bottom y+ : min = 70.140311, max = 116.32211, average = 82.695421

Time = 19s

DILUPBiCGStab:  Solving for Ux, Initial residual = 0.004098468, Final residual = 3.6379594e-09, No Iterations 5
DILUPBiCGStab:  Solving for Uy, Initial residual = 0.0085031562, Final residual = 4.9884933e-09, No Iterations 6
DICPCG:  Solving for p, Initial residual = 0.0087368048, Final residual = 8.0249575e-05, No Iterations 72
DICPCG:  Solving for p, Initial residual = 7.929156e-05, Final residual = 7.7487509e-07, No Iterations 76
DICPCG:  Solving for p, Initial residual = 7.7481535e-07, Final residual = 8.2273668e-09, No Iterations 70
time step continuity errors : sum local = 3.3299728e-10, global = 1.0877269e-11, cumulative = 7.2240691e-11
DILUPBiCGStab:  Solving for nuTilda, Initial residual = 0.016987125, Final residual = 2.215717e-09, No Iterations 4
ExecutionTime = 0.547711 s  ClockTime = 0 s



volFieldValue mindomain_scalar write:
    min() of nuTilda = 1.2778256e-06 at location (0.011404732 0.0004006648 0.5) in cell 3
    min() of nut = 5.3867299e-07 at location (0.011404732 0.0004006648 0.5) in cell 3

volFieldValue mindomain_vector write:
    minMag() of U = 0.51525504 at location (1.9686737 0.0004006648 0.5) in cell 99

volFieldValue maxdomain_scalar write:
    max() of nuTilda = 4.6996609e-05 at location (1.9686737 0.0087926364 0.5) in cell 999
    max() of nut = 4.6995176e-05 at location (1.9686737 0.0087926364 0.5) in cell 999

volFieldValue maxdomain_vector write:
    maxMag() of U = 1.0035612 at location (1.9069548 0.063842231 0.5) in cell 3998

yPlus yplus_stats write:
    patch bottom y+ : min = 66.662188, max = 116.32164, average = 82.753752

Time = 20s

DILUPBiCGStab:  Solving for Ux, Initial residual = 0.004389906, Final residual = 5.66951e-09, No Iterations 5
DILUPBiCGStab:  Solving for Uy, Initial residual = 0.0086258177, Final residual = 2.7934909e-09, No Iterations 7
DICPCG:  Solving for p, Initial residual = 0.0084020547, Final residual = 7.8070037e-05, No Iterations 64
DICPCG:  Solving for p, Initial residual = 7.6638767e-05, Final residual = 6.8871117e-07, No Iterations 60
DICPCG:  Solving for p, Initial residual = 6.88701e-07, Final residual = 8.8201298e-09, No Iterations 69
time step continuity errors : sum local = 3.6401602e-10, global = -3.9374936e-12, cumulative = 6.8303197e-11
DILUPBiCGStab:  Solving for nuTilda, Initial residual = 0.022074251, Final residual = 3.458777e-09, No Iterations 4
ExecutionTime = 0.571284 s  ClockTime = 0 s



volFieldValue mindomain_scalar write:
    min() of nuTilda = 1.2778991e-06 at location (0.011404732 0.0004006648 0.5) in cell 3
    min() of nut = 5.3867427e-07 at location (0.011404732 0.0004006648 0.5) in cell 3

volFieldValue mindomain_vector write:
    minMag() of U = 0.5473856 at location (1.9686737 0.0004006648 0.5) in cell 99

volFieldValue maxdomain_scalar write:
    max() of nuTilda = 4.8453939e-05 at location (1.9686737 0.0087926364 0.5) in cell 999
    max() of nut = 4.8452602e-05 at location (1.9686737 0.0087926364 0.5) in cell 999

volFieldValue maxdomain_vector write:
    maxMag() of U = 1.0036175 at location (1.9686737 0.061003917 0.5) in cell 3899

yPlus yplus_stats write:
    patch bottom y+ : min = 70.169707, max = 116.3216, average = 82.779411

Time = 21s

DILUPBiCGStab:  Solving for Ux, Initial residual = 0.0038822436, Final residual = 3.8492238e-09, No Iterations 5
DILUPBiCGStab:  Solving for Uy, Initial residual = 0.0072227019, Final residual = 7.2844071e-10, No Iterations 7
DICPCG:  Solving for p, Initial residual = 0.0082235542, Final residual = 8.2112441e-05, No Iterations 67
DICPCG:  Solving for p, Initial residual = 8.1444594e-05, Final residual = 5.4517094e-07, No Iterations 78
DICPCG:  Solving for p, Initial residual = 5.4493715e-07, Final residual = 9.7207443e-09, No Iterations 24
time step continuity errors : sum local = 4.0461451e-10, global = -3.6041936e-11, cumulative = 3.2261262e-11
DILUPBiCGStab:  Solving for nuTilda, Initial residual = 0.01584024, Final residual = 1.8367308e-09, No Iterations 4
ExecutionTime = 0.593929 s  ClockTime = 0 s



volFieldValue mindomain_scalar write:
    min() of nuTilda = 1.2780357e-06 at location (0.011404732 0.0004006648 0.5) in cell 3
    min() of nut = 5.3878566e-07 at location (0.011404732 0.0004006648 0.5) in cell 3

volFieldValue mindomain_vector write:
    minMag() of U = 0.51475154 at location (1.9686737 0.0004006648 0.5) in cell 99

volFieldValue maxdomain_scalar write:
    max() of nuTilda = 4.9820453e-05 at location (1.9686737 0.0087926364 0.5) in cell 999
    max() of nut = 4.9819199e-05 at location (1.9686737 0.0087926364 0.5) in cell 999

volFieldValue maxdomain_vector write:
    maxMag() of U = 1.0037299 at location (1.9069548 0.06677532 0.5) in cell 4098

yPlus yplus_stats write:
    patch bottom y+ : min = 66.607034, max = 116.32146, average = 82.842618

Time = 22s

DILUPBiCGStab:  Solving for Ux, Initial residual = 0.0042081623, Final residual = 4.2692528e-09, No Iterations 5
DILUPBiCGStab:  Solving for Uy, Initial residual = 0.0077657026, Final residual = 2.7368956e-09, No Iterations 6
DICPCG:  Solving for p, Initial residual = 0.0080840653, Final residual = 8.0169198e-05, No Iterations 63
DICPCG:  Solving for p, Initial residual = 7.8890653e-05, Final residual = 7.2778309e-07, No Iterations 70
DICPCG:  Solving for p, Initial residual = 7.2776185e-07, Final residual = 8.2423093e-09, No Iterations 75
time step continuity errors : sum local = 3.4898415e-10, global = 1.3897494e-12, cumulative = 3.3651011e-11
DILUPBiCGStab:  Solving for nuTilda, Initial residual = 0.020479641, Final residual = 2.5151045e-09, No Iterations 4
ExecutionTime = 0.623601 s  ClockTime = 0 s



volFieldValue mindomain_scalar write:
    min() of nuTilda = 1.2781603e-06 at location (0.011404732 0.0004006648 0.5) in cell 3
    min() of nut = 5.3893812e-07 at location (0.011404732 0.0004006648 0.5) in cell 3

volFieldValue mindomain_vector write:
    minMag() of U = 0.54798359 at location (1.9686737 0.0004006648 0.5) in cell 99

volFieldValue maxdomain_scalar write:
    max() of nuTilda = 5.1159638e-05 at location (1.9686737 0.0098875613 0.5) in cell 1099
    max() of nut = 5.1158445e-05 at location (1.9686737 0.0098875613 0.5) in cell 1099

volFieldValue maxdomain_vector write:
    maxMag() of U = 1.0037643 at location (1.9686737 0.061003917 0.5) in cell 3899

yPlus yplus_stats write:
    patch bottom y+ : min = 70.234765, max = 116.32155, average = 82.85475

Time = 23s

DILUPBiCGStab:  Solving for Ux, Initial residual = 0.0037025992, Final residual = 6.1148994e-09, No Iterations 5
DILUPBiCGStab:  Solving for Uy, Initial residual = 0.0062490611, Final residual = 1.4522319e-10, No Iterations 8
DICPCG:  Solving for p, Initial residual = 0.0078214926, Final residual = 7.5782192e-05, No Iterations 63
DICPCG:  Solving for p, Initial residual = 7.5408614e-05, Final residual = 5.3814241e-07, No Iterations 74
DICPCG:  Solving for p, Initial residual = 5.3773459e-07, Final residual = 8.8068973e-09, No Iterations 30
time step continuity errors : sum local = 3.7496017e-10, global = -3.6329611e-11, cumulative = -2.6786004e-12
DILUPBiCGStab:  Solving for nuTilda, Initial residual = 0.014697507, Final residual = 1.4173414e-09, No Iterations 4
ExecutionTime = 0.644216 s  ClockTime = 0 s



volFieldValue mindomain_scalar write:
    min() of nuTilda = 1.2782575e-06 at location (0.011404732 0.0004006648 0.5) in cell 3
    min() of nut = 5.3907028e-07 at location (0.011404732 0.0004006648 0.5) in cell 3

volFieldValue mindomain_vector write:
    minMag() of U = 0.51459643 at location (1.9686737 0.0004006648 0.5) in cell 99

volFieldValue maxdomain_scalar write:
    max() of nuTilda = 5.2545648e-05 at location (1.9686737 0.0098875613 0.5) in cell 1099
    max() of nut = 5.2544524e-05 at location (1.9686737 0.0098875613 0.5) in cell 1099

volFieldValue maxdomain_vector write:
    maxMag() of U = 1.0038509 at location (1.9069548 0.06677532 0.5) in cell 4098

yPlus yplus_stats write:
    patch bottom y+ : min = 66.590043, max = 116.32156, average = 82.915165

Time = 24s

DILUPBiCGStab:  Solving for Ux, Initial residual = 0.0040655236, Final residual = 4.3265766e-09, No Iterations 5
DILUPBiCGStab:  Solving for Uy, Initial residual = 0.0073073405, Final residual = 3.084335e-09, No Iterations 6
DICPCG:  Solving for p, Initial residual = 0.0077367264, Final residual = 7.140512e-05, No Iterations 63
DICPCG:  Solving for p, Initial residual = 7.0438079e-05, Final residual = 6.8026795e-07, No Iterations 77
DICPCG:  Solving for p, Initial residual = 6.8023873e-07, Final residual = 9.497597e-09, No Iterations 66
time step continuity errors : sum local = 4.1023037e-10, global = 4.3240909e-12, cumulative = 1.6454905e-12
DILUPBiCGStab:  Solving for nuTilda, Initial residual = 0.019240155, Final residual = 1.7872563e-09, No Iterations 4
ExecutionTime = 0.668872 s  ClockTime = 0 s



volFieldValue mindomain_scalar write:
    min() of nuTilda = 1.2783349e-06 at location (0.011404732 0.0004006648 0.5) in cell 3
    min() of nut = 5.3917407e-07 at location (0.011404732 0.0004006648 0.5) in cell 3

volFieldValue mindomain_vector write:
    minMag() of U = 0.54885467 at location (1.9686737 0.0004006648 0.5) in cell 99

volFieldValue maxdomain_scalar write:
    max() of nuTilda = 5.3863335e-05 at location (1.9686737 0.0098875613 0.5) in cell 1099
    max() of nut = 5.3862272e-05 at location (1.9686737 0.0098875613 0.5) in cell 1099

volFieldValue maxdomain_vector write:
    maxMag() of U = 1.0038582 at location (1.9686737 0.061003917 0.5) in cell 3899

yPlus yplus_stats write:
    patch bottom y+ : min = 70.32952, max = 116.3218, average = 82.925626

Time = 25s

DILUPBiCGStab:  Solving for Ux, Initial residual = 0.0035524768, Final residual = 4.3257311e-09, No Iterations 5
DILUPBiCGStab:  Solving for Uy, Initial residual = 0.0054995761, Final residual = 7.5479121e-09, No Iterations 6
DICPCG:  Solving for p, Initial residual = 0.0074904606, Final residual = 7.4703962e-05, No Iterations 41
DICPCG:  Solving for p, Initial residual = 7.4569964e-05, Final residual = 6.9042513e-07, No Iterations 69
DICPCG:  Solving for p, Initial residual = 6.8918965e-07, Final residual = 8.8789885e-09, No Iterations 36
time step continuity errors : sum local = 3.8481044e-10, global = 1.2289978e-12, cumulative = 2.8744883e-12
DILUPBiCGStab:  Solving for nuTilda, Initial residual = 0.013693582, Final residual = 8.1859471e-09, No Iterations 3
ExecutionTime = 0.689511 s  ClockTime = 0 s



volFieldValue mindomain_scalar write:
    min() of nuTilda = 1.2784041e-06 at location (0.011404732 0.0004006648 0.5) in cell 3
    min() of nut = 5.3925991e-07 at location (0.011404732 0.0004006648 0.5) in cell 3

volFieldValue mindomain_vector write:
    minMag() of U = 0.51477453 at location (1.9686737 0.0004006648 0.5) in cell 99

volFieldValue maxdomain_scalar write:
    max() of nuTilda = 5.5108242e-05 at location (1.9686737 0.0098875613 0.5) in cell 1099
    max() of nut = 5.5107232e-05 at location (1.9686737 0.0098875613 0.5) in cell 1099

volFieldValue maxdomain_vector write:
    maxMag() of U = 1.0039192 at location (1.9069548 0.069806347 0.5) in cell 4198

yPlus yplus_stats write:
    patch bottom y+ : min = 66.609552, max = 116.3219, average = 82.976215

Time = 26s

DILUPBiCGStab:  Solving for Ux, Initial residual = 0.0039692814, Final residual = 3.8984446e-09, No Iterations 5
DILUPBiCGStab:  Solving for Uy, Initial residual = 0.0068035404, Final residual = 5.2145079e-09, No Iterations 6
DICPCG:  Solving for p, Initial residual = 0.0073700843, Final residual = 6.7995771e-05, No Iterations 63
DICPCG:  Solving for p, Initial residual = 6.7233697e-05, Final residual = 6.1208788e-07, No Iterations 72
DICPCG:  Solving for p, Initial residual = 6.1204687e-07, Final residual = 7.5960499e-09, No Iterations 71
time step continuity errors : sum local = 3.3306832e-10, global = 2.1484386e-11, cumulative = 2.4358874e-11
DILUPBiCGStab:  Solving for nuTilda, Initial residual = 0.018241447, Final residual = 7.9598035e-09, No Iterations 3
ExecutionTime = 0.713103 s  ClockTime = 0 s



volFieldValue mindomain_scalar write:
    min() of nuTilda = 1.2784629e-06 at location (0.011404732 0.0004006648 0.5) in cell 3
    min() of nut = 5.3933533e-07 at location (0.011404732 0.0004006648 0.5) in cell 3

volFieldValue mindomain_vector write:
    minMag() of U = 0.54995604 at location (1.9686737 0.0004006648 0.5) in cell 99

volFieldValue maxdomain_scalar write:
    max() of nuTilda = 5.6293018e-05 at location (1.9686737 0.0098875613 0.5) in cell 1099
    max() of nut = 5.6292055e-05 at location (1.9686737 0.0098875613 0.5) in cell 1099

volFieldValue maxdomain_vector write:
    maxMag() of U = 1.0039069 at location (1.9686737 0.061003917 0.5) in cell 3899

yPlus yplus_stats write:
    patch bottom y+ : min = 70.449303, max = 116.32218, average = 82.988354

Time = 27s

DILUPBiCGStab:  Solving for Ux, Initial residual = 0.0034496818, Final residual = 4.7335945e-09, No Iterations 5
DILUPBiCGStab:  Solving for Uy, Initial residual = 0.0048149169, Final residual = 5.1493963e-09, No Iterations 6
DICPCG:  Solving for p, Initial residual = 0.0073709262, Final residual = 7.3317133e-05, No Iterations 37
DICPCG:  Solving for p, Initial residual = 7.3263562e-05, Final residual = 7.0934302e-07, No Iterations 72
DICPCG:  Solving for p, Initial residual = 7.0876128e-07, Final residual = 9.8762406e-09, No Iterations 33
time step continuity errors : sum local = 4.3349255e-10, global = 4.7898732e-12, cumulative = 2.9148747e-11
DILUPBiCGStab:  Solving for nuTilda, Initial residual = 0.012858263, Final residual = 5.6918204e-09, No Iterations 3
ExecutionTime = 0.731086 s  ClockTime = 0 s



volFieldValue mindomain_scalar write:
    min() of nuTilda = 1.2785135e-06 at location (0.011404732 0.0004006648 0.5) in cell 3
    min() of nut = 5.3939969e-07 at location (0.011404732 0.0004006648 0.5) in cell 3

volFieldValue mindomain_vector write:
    minMag() of U = 0.51526386 at location (1.9686737 0.0004006648 0.5) in cell 99

volFieldValue maxdomain_scalar write:
    max() of nuTilda = 5.7472608e-05 at location (1.9686737 0.011019047 0.5) in cell 1199
    max() of nut = 5.7471682e-05 at location (1.9686737 0.011019047 0.5) in cell 1199

volFieldValue maxdomain_vector write:
    maxMag() of U = 1.0039581 at location (1.9686737 0.076175409 0.5) in cell 4399

yPlus yplus_stats write:
    patch bottom y+ : min = 66.663155, max = 116.32228, average = 83.029998

Time = 28s

DILUPBiCGStab:  Solving for Ux, Initial residual = 0.0039073551, Final residual = 4.3038337e-09, No Iterations 5
DILUPBiCGStab:  Solving for Uy, Initial residual = 0.0064397743, Final residual = 4.4280094e-09, No Iterations 6
DICPCG:  Solving for p, Initial residual = 0.007408126, Final residual = 6.9392563e-05, No Iterations 63
DICPCG:  Solving for p, Initial residual = 6.8741174e-05, Final residual = 6.1818722e-07, No Iterations 71
DICPCG:  Solving for p, Initial residual = 6.1812448e-07, Final residual = 9.8968236e-09, No Iterations 57
time step continuity errors : sum local = 4.3863038e-10, global = 8.026763e-12, cumulative = 3.717551e-11
DILUPBiCGStab:  Solving for nuTilda, Initial residual = 0.017402468, Final residual = 5.2950928e-09, No Iterations 3
ExecutionTime = 0.754125 s  ClockTime = 0 s



volFieldValue mindomain_scalar write:
    min() of nuTilda = 1.2785541e-06 at location (0.011404732 0.0004006648 0.5) in cell 3
    min() of nut = 5.3945385e-07 at location (0.011404732 0.0004006648 0.5) in cell 3

volFieldValue mindomain_vector write:
    minMag() of U = 0.5512494 at location (1.9686737 0.0004006648 0.5) in cell 99

volFieldValue maxdomain_scalar write:
    max() of nuTilda = 5.8668113e-05 at location (1.9686737 0.011019047 0.5) in cell 1199
    max() of nut = 5.8667228e-05 at location (1.9686737 0.011019047 0.5) in cell 1199

volFieldValue maxdomain_vector write:
    maxMag() of U = 1.003927 at location (1.9686737 0.061003917 0.5) in cell 3899

yPlus yplus_stats write:
    patch bottom y+ : min = 70.589931, max = 116.32255, average = 83.041746

Time = 29s

DILUPBiCGStab:  Solving for Ux, Initial residual = 0.003380635, Final residual = 5.469453e-09, No Iterations 5
DILUPBiCGStab:  Solving for Uy, Initial residual = 0.0043521402, Final residual = 4.0608261e-09, No Iterations 7
DICPCG:  Solving for p, Initial residual = 0.0073470282, Final residual = 6.5652187e-05, No Iterations 36
DICPCG:  Solving for p, Initial residual = 6.563212e-05, Final residual = 6.0008824e-07, No Iterations 76
DICPCG:  Solving for p, Initial residual = 6.0018422e-07, Final residual = 9.247106e-09, No Iterations 37
time step continuity errors : sum local = 4.097249e-10, global = 7.8475604e-11, cumulative = 1.1565111e-10
DILUPBiCGStab:  Solving for nuTilda, Initial residual = 0.012151742, Final residual = 4.0003602e-09, No Iterations 3
ExecutionTime = 0.773425 s  ClockTime = 0 s



volFieldValue mindomain_scalar write:
    min() of nuTilda = 1.27859e-06 at location (0.011404732 0.0004006648 0.5) in cell 3
    min() of nut = 5.3949864e-07 at location (0.011404732 0.0004006648 0.5) in cell 3

volFieldValue mindomain_vector write:
    minMag() of U = 0.5160301 at location (1.9686737 0.0004006648 0.5) in cell 99

volFieldValue maxdomain_scalar write:
    max() of nuTilda = 5.9800729e-05 at location (1.9686737 0.011019047 0.5) in cell 1199
    max() of nut = 5.9799881e-05 at location (1.9686737 0.011019047 0.5) in cell 1199

volFieldValue maxdomain_vector write:
    maxMag() of U = 1.0039814 at location (1.9686737 0.082976911 0.5) in cell 4599

yPlus yplus_stats write:
    patch bottom y+ : min = 66.747079, max = 116.32262, average = 83.078437

Time = 30s

DILUPBiCGStab:  Solving for Ux, Initial residual = 0.0038799098, Final residual = 4.403923e-09, No Iterations 5
DILUPBiCGStab:  Solving for Uy, Initial residual = 0.0059450303, Final residual = 9.5139834e-09, No Iterations 6
DICPCG:  Solving for p, Initial residual = 0.0072233545, Final residual = 7.1957152e-05, No Iterations 62
DICPCG:  Solving for p, Initial residual = 7.137612e-05, Final residual = 6.3906931e-07, No Iterations 71
DICPCG:  Solving for p, Initial residual = 6.3897208e-07, Final residual = 9.8731752e-09, No Iterations 34
time step continuity errors : sum local = 4.4122866e-10, global = -8.8567217e-11, cumulative = 2.7083898e-11
DILUPBiCGStab:  Solving for nuTilda, Initial residual = 0.016729188, Final residual = 3.5273074e-09, No Iterations 3
ExecutionTime = 0.803106 s  ClockTime = 0 s



volFieldValue mindomain_scalar write:
    min() of nuTilda = 1.2786201e-06 at location (0.011404732 0.0004006648 0.5) in cell 3
    min() of nut = 5.3953761e-07 at location (0.011404732 0.0004006648 0.5) in cell 3

volFieldValue mindomain_vector write:
    minMag() of U = 0.55269618 at location (1.9686737 0.0004006648 0.5) in cell 99

volFieldValue maxdomain_scalar write:
    max() of nuTilda = 6.0879241e-05 at location (1.9686737 0.011019047 0.5) in cell 1199
    max() of nut = 6.0878426e-05 at location (1.9686737 0.011019047 0.5) in cell 1199

volFieldValue maxdomain_vector write:
    maxMag() of U = 1.0039436 at location (1.9686737 0.086548926 0.5) in cell 4699

yPlus yplus_stats write:
    patch bottom y+ : min = 70.747198, max = 116.32287, average = 83.084053

Time = 31s

DILUPBiCGStab:  Solving for Ux, Initial residual = 0.0033735855, Final residual = 6.6173615e-09, No Iterations 5
DILUPBiCGStab:  Solving for Uy, Initial residual = 0.0040497936, Final residual = 3.4325095e-09, No Iterations 7
DICPCG:  Solving for p, Initial residual = 0.0072389021, Final residual = 6.3555984e-05, No Iterations 36
DICPCG:  Solving for p, Initial residual = 6.3569409e-05, Final residual = 5.705961e-07, No Iterations 76
DICPCG:  Solving for p, Initial residual = 5.7126576e-07, Final residual = 9.8225779e-09, No Iterations 34
time step continuity errors : sum local = 4.3819171e-10, global = 4.5106651e-11, cumulative = 7.2190548e-11
DILUPBiCGStab:  Solving for nuTilda, Initial residual = 0.011787023, Final residual = 2.7831226e-09, No Iterations 3
ExecutionTime = 0.827803 s  ClockTime = 0 s



volFieldValue mindomain_scalar write:
    min() of nuTilda = 1.2786467e-06 at location (0.011404732 0.0004006648 0.5) in cell 3
    min() of nut = 5.3957088e-07 at location (0.011404732 0.0004006648 0.5) in cell 3

volFieldValue mindomain_vector write:
    minMag() of U = 0.51702583 at location (1.9686737 0.0004006648 0.5) in cell 99

volFieldValue maxdomain_scalar write:
    max() of nuTilda = 6.1899421e-05 at location (1.9686737 0.011019047 0.5) in cell 1199
    max() of nut = 6.1898635e-05 at location (1.9686737 0.011019047 0.5) in cell 1199

volFieldValue maxdomain_vector write:
    maxMag() of U = 1.003996 at location (1.9686737 0.082976911 0.5) in cell 4599

yPlus yplus_stats write:
    patch bottom y+ : min = 66.856117, max = 116.32292, average = 83.125426

Time = 32s

DILUPBiCGStab:  Solving for Ux, Initial residual = 0.0038849341, Final residual = 4.3745462e-09, No Iterations 5
DILUPBiCGStab:  Solving for Uy, Initial residual = 0.0054529668, Final residual = 9.3055825e-09, No Iterations 6
DICPCG:  Solving for p, Initial residual = 0.0070026381, Final residual = 6.6311218e-05, No Iterations 61
DICPCG:  Solving for p, Initial residual = 6.5835321e-05, Final residual = 5.8069138e-07, No Iterations 70
DICPCG:  Solving for p, Initial residual = 5.8058979e-07, Final residual = 8.6755942e-09, No Iterations 25
time step continuity errors : sum local = 3.9007706e-10, global = -4.8274049e-11, cumulative = 2.39165e-11
DILUPBiCGStab:  Solving for nuTilda, Initial residual = 0.016124733, Final residual = 2.3462914e-09, No Iterations 3
ExecutionTime = 0.847567 s  ClockTime = 0 s



volFieldValue mindomain_scalar write:
    min() of nuTilda = 1.2786692e-06 at location (0.011404732 0.0004006648 0.5) in cell 3
    min() of nut = 5.3959989e-07 at location (0.011404732 0.0004006648 0.5) in cell 3

volFieldValue mindomain_vector write:
    minMag() of U = 0.55425487 at location (1.9686737 0.0004006648 0.5) in cell 99

volFieldValue maxdomain_scalar write:
    max() of nuTilda = 6.2869511e-05 at location (1.9686737 0.011019047 0.5) in cell 1199
    max() of nut = 6.2868752e-05 at location (1.9686737 0.011019047 0.5) in cell 1199

volFieldValue maxdomain_vector write:
    maxMag() of U = 1.0039537 at location (1.9686737 0.086548926 0.5) in cell 4699

yPlus yplus_stats write:
    patch bottom y+ : min = 70.916578, max = 116.32314, average = 83.115166

Time = 33s

DILUPBiCGStab:  Solving for Ux, Initial residual = 0.0033846725, Final residual = 9.3886021e-09, No Iterations 5
DILUPBiCGStab:  Solving for Uy, Initial residual = 0.0040289043, Final residual = 6.6590813e-09, No Iterations 6
DICPCG:  Solving for p, Initial residual = 0.0071689039, Final residual = 6.9553225e-05, No Iterations 37
DICPCG:  Solving for p, Initial residual = 6.9615327e-05, Final residual = 6.1071032e-07, No Iterations 67
DICPCG:  Solving for p, Initial residual = 6.1203763e-07, Final residual = 9.3319543e-09, No Iterations 32
time step continuity errors : sum local = 4.1809247e-10, global = 4.4432241e-11, cumulative = 6.8348741e-11
DILUPBiCGStab:  Solving for nuTilda, Initial residual = 0.011442928, Final residual = 1.930814e-09, No Iterations 3
ExecutionTime = 0.865629 s  ClockTime = 0 s



volFieldValue mindomain_scalar write:
    min() of nuTilda = 1.2786896e-06 at location (0.011404732 0.0004006648 0.5) in cell 3
    min() of nut = 5.3962496e-07 at location (0.011404732 0.0004006648 0.5) in cell 3

volFieldValue mindomain_vector write:
    minMag() of U = 0.51819385 at location (1.9686737 0.0004006648 0.5) in cell 99

volFieldValue maxdomain_scalar write:
    max() of nuTilda = 6.3785365e-05 at location (1.9686737 0.011019047 0.5) in cell 1199
    max() of nut = 6.378463e-05 at location (1.9686737 0.011019047 0.5) in cell 1199

volFieldValue maxdomain_vector write:
    maxMag() of U = 1.0040039 at location (1.9686737 0.082976911 0.5) in cell 4599

yPlus yplus_stats write:
    patch bottom y+ : min = 66.983992, max = 116.32318, average = 83.166934

Time = 34s

DILUPBiCGStab:  Solving for Ux, Initial residual = 0.003880906, Final residual = 4.4655974e-09, No Iterations 5
DILUPBiCGStab:  Solving for Uy, Initial residual = 0.0050389333, Final residual = 8.858615e-09, No Iterations 6
DICPCG:  Solving for p, Initial residual = 0.0067491836, Final residual = 5.9834774e-05, No Iterations 61
DICPCG:  Solving for p, Initial residual = 5.9459107e-05, Final residual = 5.1300573e-07, No Iterations 72
DICPCG:  Solving for p, Initial residual = 5.1292291e-07, Final residual = 8.2902153e-09, No Iterations 62
time step continuity errors : sum local = 3.7399438e-10, global = 1.4081855e-11, cumulative = 8.2430596e-11
DILUPBiCGStab:  Solving for nuTilda, Initial residual = 0.015599141, Final residual = 1.5927291e-09, No Iterations 3
ExecutionTime = 0.890284 s  ClockTime = 0 s



volFieldValue mindomain_scalar write:
    min() of nuTilda = 1.2787072e-06 at location (0.011404732 0.0004006648 0.5) in cell 3
    min() of nut = 5.3964731e-07 at location (0.011404732 0.0004006648 0.5) in cell 3

volFieldValue mindomain_vector write:
    minMag() of U = 0.55588023 at location (1.9686737 0.0004006648 0.5) in cell 99

volFieldValue maxdomain_scalar write:
    max() of nuTilda = 6.4740023e-05 at location (1.9686737 0.012188314 0.5) in cell 1299
    max() of nut = 6.4739309e-05 at location (1.9686737 0.012188314 0.5) in cell 1299

volFieldValue maxdomain_vector write:
    maxMag() of U = 1.0039575 at location (1.9686737 0.086548926 0.5) in cell 4699

yPlus yplus_stats write:
    patch bottom y+ : min = 71.093146, max = 116.32339, average = 83.146141

Time = 35s

DILUPBiCGStab:  Solving for Ux, Initial residual = 0.0033675972, Final residual = 7.7064871e-09, No Iterations 6
DILUPBiCGStab:  Solving for Uy, Initial residual = 0.0041249871, Final residual = 4.5503185e-09, No Iterations 6
DICPCG:  Solving for p, Initial residual = 0.0069337937, Final residual = 6.614288e-05, No Iterations 60
DICPCG:  Solving for p, Initial residual = 6.6388681e-05, Final residual = 5.804535e-07, No Iterations 78
DICPCG:  Solving for p, Initial residual = 5.8058683e-07, Final residual = 9.5090803e-09, No Iterations 37
time step continuity errors : sum local = 4.2719802e-10, global = 2.8869981e-12, cumulative = 8.5317594e-11
DILUPBiCGStab:  Solving for nuTilda, Initial residual = 0.010985377, Final residual = 1.3515273e-09, No Iterations 3
ExecutionTime = 0.912295 s  ClockTime = 0 s



volFieldValue mindomain_scalar write:
    min() of nuTilda = 1.2787238e-06 at location (0.011404732 0.0004006648 0.5) in cell 3
    min() of nut = 5.3966722e-07 at location (0.011404732 0.0004006648 0.5) in cell 3

volFieldValue mindomain_vector write:
    minMag() of U = 0.519472 at location (1.9686737 0.0004006648 0.5) in cell 99

volFieldValue maxdomain_scalar write:
    max() of nuTilda = 6.5645214e-05 at location (1.9686737 0.012188314 0.5) in cell 1299
    max() of nut = 6.5644521e-05 at location (1.9686737 0.012188314 0.5) in cell 1299

volFieldValue maxdomain_vector write:
    maxMag() of U = 1.0040055 at location (1.9686737 0.086548926 0.5) in cell 4699

yPlus yplus_stats write:
    patch bottom y+ : min = 67.123887, max = 116.32342, average = 83.196308

Time = 36s

DILUPBiCGStab:  Solving for Ux, Initial residual = 0.0038761118, Final residual = 4.6138028e-09, No Iterations 5
DILUPBiCGStab:  Solving for Uy, Initial residual = 0.0046527871, Final residual = 6.8579988e-09, No Iterations 7
DICPCG:  Solving for p, Initial residual = 0.0064974627, Final residual = 5.9851314e-05, No Iterations 60
DICPCG:  Solving for p, Initial residual = 5.9536429e-05, Final residual = 4.3872149e-07, No Iterations 69
DICPCG:  Solving for p, Initial residual = 4.3865446e-07, Final residual = 9.2219008e-09, No Iterations 27
time step continuity errors : sum local = 4.1671966e-10, global = -5.0639114e-11, cumulative = 3.467848e-11
DILUPBiCGStab:  Solving for nuTilda, Initial residual = 0.015185328, Final residual = 1.1060969e-09, No Iterations 3
ExecutionTime = 0.934986 s  ClockTime = 1 s



volFieldValue mindomain_scalar write:
    min() of nuTilda = 1.2787377e-06 at location (0.011404732 0.0004006648 0.5) in cell 3
    min() of nut = 5.3968521e-07 at location (0.011404732 0.0004006648 0.5) in cell 3

volFieldValue mindomain_vector write:
    minMag() of U = 0.55752418 at location (1.9686737 0.0004006648 0.5) in cell 99

volFieldValue maxdomain_scalar write:
    max() of nuTilda = 6.6501882e-05 at location (1.9686737 0.012188314 0.5) in cell 1299
    max() of nut = 6.6501209e-05 at location (1.9686737 0.012188314 0.5) in cell 1299

volFieldValue maxdomain_vector write:
    maxMag() of U = 1.0039554 at location (1.9686737 0.090240215 0.5) in cell 4799

yPlus yplus_stats write:
    patch bottom y+ : min = 71.271677, max = 116.32363, average = 83.175001

Time = 37s

DILUPBiCGStab:  Solving for Ux, Initial residual = 0.0033535604, Final residual = 9.5381315e-09, No Iterations 6
DILUPBiCGStab:  Solving for Uy, Initial residual = 0.0042416419, Final residual = 3.8099966e-09, No Iterations 6
DICPCG:  Solving for p, Initial residual = 0.0067620934, Final residual = 6.5387951e-05, No Iterations 60
DICPCG:  Solving for p, Initial residual = 6.5672324e-05, Final residual = 6.4138008e-07, No Iterations 77
DICPCG:  Solving for p, Initial residual = 6.4149046e-07, Final residual = 9.461187e-09, No Iterations 40
time step continuity errors : sum local = 4.2558672e-10, global = 3.5679137e-11, cumulative = 7.0357617e-11
DILUPBiCGStab:  Solving for nuTilda, Initial residual = 0.010615053, Final residual = 9.5261498e-10, No Iterations 3
ExecutionTime = 0.957948 s  ClockTime = 1 s



volFieldValue mindomain_scalar write:
    min() of nuTilda = 1.2787504e-06 at location (0.011404732 0.0004006648 0.5) in cell 3
    min() of nut = 5.3970077e-07 at location (0.011404732 0.0004006648 0.5) in cell 3

volFieldValue mindomain_vector write:
    minMag() of U = 0.52079824 at location (1.9686737 0.0004006648 0.5) in cell 99

volFieldValue maxdomain_scalar write:
    max() of nuTilda = 6.7307805e-05 at location (1.9686737 0.012188314 0.5) in cell 1299
    max() of nut = 6.730715e-05 at location (1.9686737 0.012188314 0.5) in cell 1299

volFieldValue maxdomain_vector write:
    maxMag() of U = 1.0040012 at location (1.9686737 0.086548926 0.5) in cell 4699

yPlus yplus_stats write:
    patch bottom y+ : min = 67.269006, max = 116.32365, average = 83.220545

Time = 38s

DILUPBiCGStab:  Solving for Ux, Initial residual = 0.0038757247, Final residual = 4.7940253e-09, No Iterations 5
DILUPBiCGStab:  Solving for Uy, Initial residual = 0.004304241, Final residual = 6.1127026e-09, No Iterations 7
DICPCG:  Solving for p, Initial residual = 0.0062929646, Final residual = 5.6136964e-05, No Iterations 60
DICPCG:  Solving for p, Initial residual = 5.5884893e-05, Final residual = 4.7688815e-07, No Iterations 77
DICPCG:  Solving for p, Initial residual = 4.7682688e-07, Final residual = 9.9186685e-09, No Iterations 32
time step continuity errors : sum local = 4.4842062e-10, global = -5.5345582e-11, cumulative = 1.5012036e-11
DILUPBiCGStab:  Solving for nuTilda, Initial residual = 0.014829376, Final residual = 8.6862744e-09, No Iterations 3
ExecutionTime = 0.982282 s  ClockTime = 1 s



volFieldValue mindomain_scalar write:
    min() of nuTilda = 1.2787603e-06 at location (0.011404732 0.0004006648 0.5) in cell 3
    min() of nut = 5.3971421e-07 at location (0.011404732 0.0004006648 0.5) in cell 3

volFieldValue mindomain_vector write:
    minMag() of U = 0.55913863 at location (1.9686737 0.0004006648 0.5) in cell 99

volFieldValue maxdomain_scalar write:
    max() of nuTilda = 6.806863e-05 at location (1.9686737 0.012188314 0.5) in cell 1299
    max() of nut = 6.8067991e-05 at location (1.9686737 0.012188314 0.5) in cell 1299

volFieldValue maxdomain_vector write:
    maxMag() of U = 1.003948 at location (1.9686737 0.090240215 0.5) in cell 4799

yPlus yplus_stats write:
    patch bottom y+ : min = 71.446946, max = 116.32385, average = 83.198428

Time = 39s

DILUPBiCGStab:  Solving for Ux, Initial residual = 0.0033374776, Final residual = 6.8244723e-09, No Iterations 6
DILUPBiCGStab:  Solving for Uy, Initial residual = 0.0042819653, Final residual = 5.2484668e-09, No Iterations 6
DICPCG:  Solving for p, Initial residual = 0.0066555252, Final residual = 6.5843942e-05, No Iterations 60
DICPCG:  Solving for p, Initial residual = 6.6160022e-05, Final residual = 6.5645937e-07, No Iterations 77
DICPCG:  Solving for p, Initial residual = 6.5656314e-07, Final residual = 9.6242982e-09, No Iterations 37
time step continuity errors : sum local = 4.3300313e-10, global = 4.8823858e-11, cumulative = 6.3835894e-11
DILUPBiCGStab:  Solving for nuTilda, Initial residual = 0.010301876, Final residual = 7.9924118e-09, No Iterations 3
ExecutionTime = 1.00236 s  ClockTime = 1 s



volFieldValue mindomain_scalar write:
    min() of nuTilda = 1.2787688e-06 at location (0.011404732 0.0004006648 0.5) in cell 3
    min() of nut = 5.3972502e-07 at location (0.011404732 0.0004006648 0.5) in cell 3

volFieldValue mindomain_vector write:
    minMag() of U = 0.52211561 at location (1.9686737 0.0004006648 0.5) in cell 99

volFieldValue maxdomain_scalar write:
    max() of nuTilda = 6.8782037e-05 at location (1.9686737 0.012188314 0.5) in cell 1299
    max() of nut = 6.8781412e-05 at location (1.9686737 0.012188314 0.5) in cell 1299

volFieldValue maxdomain_vector write:
    maxMag() of U = 1.0039921 at location (1.9686737 0.086548926 0.5) in cell 4699

yPlus yplus_stats write:
    patch bottom y+ : min = 67.413113, max = 116.32386, average = 83.241183

Time = 40s

DILUPBiCGStab:  Solving for Ux, Initial residual = 0.0038703952, Final residual = 4.8821432e-09, No Iterations 5
DILUPBiCGStab:  Solving for Uy, Initial residual = 0.0041199167, Final residual = 7.7026614e-09, No Iterations 6
DICPCG:  Solving for p, Initial residual = 0.0061891001, Final residual = 5.627894e-05, No Iterations 60
DICPCG:  Solving for p, Initial residual = 5.6057829e-05, Final residual = 5.4380495e-07, No Iterations 77
DICPCG:  Solving for p, Initial residual = 5.437349e-07, Final residual = 9.0574139e-09, No Iterations 36
time step continuity errors : sum local = 4.0933e-10, global = -5.4106272e-11, cumulative = 9.729622e-12
DILUPBiCGStab:  Solving for nuTilda, Initial residual = 0.014511402, Final residual = 6.4354195e-09, No Iterations 3
ExecutionTime = 1.029876 s  ClockTime = 1 s



volFieldValue mindomain_scalar write:
    min() of nuTilda = 1.2787746e-06 at location (0.011404732 0.0004006648 0.5) in cell 3
    min() of nut = 5.3973375e-07 at location (0.011404732 0.0004006648 0.5) in cell 3

volFieldValue mindomain_vector write:
    minMag() of U = 0.56067926 at location (1.9686737 0.0004006648 0.5) in cell 99

volFieldValue maxdomain_scalar write:
    max() of nuTilda = 6.9453319e-05 at location (1.9686737 0.012188314 0.5) in cell 1299
    max() of nut = 6.9452708e-05 at location (1.9686737 0.012188314 0.5) in cell 1299

volFieldValue maxdomain_vector write:
    maxMag() of U = 1.0039367 at location (1.9686737 0.090240215 0.5) in cell 4799

yPlus yplus_stats write:
    patch bottom y+ : min = 71.61415, max = 116.32405, average = 83.216491

Time = 41s

DILUPBiCGStab:  Solving for Ux, Initial residual = 0.0033171076, Final residual = 6.0350263e-09, No Iterations 6
DILUPBiCGStab:  Solving for Uy, Initial residual = 0.0043092532, Final residual = 1.5524709e-09, No Iterations 7
DICPCG:  Solving for p, Initial residual = 0.0066001755, Final residual = 5.7609289e-05, No Iterations 61
DICPCG:  Solving for p, Initial residual = 5.7911032e-05, Final residual = 4.7485758e-07, No Iterations 78
DICPCG:  Solving for p, Initial residual = 4.7491772e-07, Final residual = 9.5077859e-09, No Iterations 32
time step continuity errors : sum local = 4.27452e-10, global = 4.6915979e-11, cumulative = 5.6645601e-11
DILUPBiCGStab:  Solving for nuTilda, Initial residual = 0.010030913, Final residual = 5.7649355e-09, No Iterations 3
ExecutionTime = 1.052065 s  ClockTime = 1 s



volFieldValue mindomain_scalar write:
    min() of nuTilda = 1.2787795e-06 at location (0.011404732 0.0004006648 0.5) in cell 3
    min() of nut = 5.3974006e-07 at location (0.011404732 0.0004006648 0.5) in cell 3

volFieldValue mindomain_vector write:
    minMag() of U = 0.52337622 at location (1.9686737 0.0004006648 0.5) in cell 99

volFieldValue maxdomain_scalar write:
    max() of nuTilda = 7.0080359e-05 at location (1.9686737 0.012188314 0.5) in cell 1299
    max() of nut = 7.007976e-05 at location (1.9686737 0.012188314 0.5) in cell 1299

volFieldValue maxdomain_vector write:
    maxMag() of U = 1.0039798 at location (1.9686737 0.086548926 0.5) in cell 4699

yPlus yplus_stats write:
    patch bottom y+ : min = 67.550974, max = 116.32405, average = 83.259747

Time = 42s

DILUPBiCGStab:  Solving for Ux, Initial residual = 0.0038603941, Final residual = 4.8568707e-09, No Iterations 5
DILUPBiCGStab:  Solving for Uy, Initial residual = 0.0039905828, Final residual = 5.8727995e-09, No Iterations 6
DICPCG:  Solving for p, Initial residual = 0.0061036284, Final residual = 5.9487759e-05, No Iterations 60
DICPCG:  Solving for p, Initial residual = 5.9266572e-05, Final residual = 5.4316485e-07, No Iterations 78
DICPCG:  Solving for p, Initial residual = 5.4308859e-07, Final residual = 9.7243102e-09, No Iterations 36
time step continuity errors : sum local = 4.3910985e-10, global = -4.0674514e-11, cumulative = 1.5971087e-11
DILUPBiCGStab:  Solving for nuTilda, Initial residual = 0.014245797, Final residual = 4.8609505e-09, No Iterations 3
ExecutionTime = 1.076956 s  ClockTime = 1 s



volFieldValue mindomain_scalar write:
    min() of nuTilda = 1.278782e-06 at location (0.011404732 0.0004006648 0.5) in cell 3
    min() of nut = 5.3974471e-07 at location (0.011404732 0.0004006648 0.5) in cell 3

volFieldValue mindomain_vector write:
    minMag() of U = 0.5621095 at location (1.9686737 0.0004006648 0.5) in cell 99

volFieldValue maxdomain_scalar write:
    max() of nuTilda = 7.0669066e-05 at location (1.9686737 0.012188314 0.5) in cell 1299
    max() of nut = 7.0668478e-05 at location (1.9686737 0.012188314 0.5) in cell 1299

volFieldValue maxdomain_vector write:
    maxMag() of U = 1.0039236 at location (1.9686737 0.09405476 0.5) in cell 4899

yPlus yplus_stats write:
    patch bottom y+ : min = 71.769326, max = 116.32422, average = 83.22816

Time = 43s

DILUPBiCGStab:  Solving for Ux, Initial residual = 0.0033192184, Final residual = 6.1328843e-09, No Iterations 6
DILUPBiCGStab:  Solving for Uy, Initial residual = 0.0042768358, Final residual = 1.8769857e-09, No Iterations 7
DICPCG:  Solving for p, Initial residual = 0.0065320277, Final residual = 6.0186943e-05, No Iterations 61
DICPCG:  Solving for p, Initial residual = 6.0531626e-05, Final residual = 5.998597e-07, No Iterations 69
DICPCG:  Solving for p, Initial residual = 5.9994235e-07, Final residual = 9.4757692e-09, No Iterations 68
time step continuity errors : sum local = 4.2540354e-10, global = -1.640486e-11, cumulative = -4.3377299e-13
DILUPBiCGStab:  Solving for nuTilda, Initial residual = 0.009942434, Final residual = 4.2365391e-09, No Iterations 3
ExecutionTime = 1.108624 s  ClockTime = 1 s



volFieldValue mindomain_scalar write:
    min() of nuTilda = 1.2787841e-06 at location (0.011404732 0.0004006648 0.5) in cell 3
    min() of nut = 5.3974742e-07 at location (0.011404732 0.0004006648 0.5) in cell 3

volFieldValue mindomain_vector write:
    minMag() of U = 0.52454366 at location (1.9686737 0.0004006648 0.5) in cell 99

volFieldValue maxdomain_scalar write:
    max() of nuTilda = 7.1217201e-05 at location (1.9686737 0.012188314 0.5) in cell 1299
    max() of nut = 7.1216624e-05 at location (1.9686737 0.012188314 0.5) in cell 1299

volFieldValue maxdomain_vector write:
    maxMag() of U = 1.003967 at location (1.9686737 0.090240215 0.5) in cell 4799

yPlus yplus_stats write:
    patch bottom y+ : min = 67.678612, max = 116.3242, average = 83.278906

Time = 44s

DILUPBiCGStab:  Solving for Ux, Initial residual = 0.0038793632, Final residual = 4.7648246e-09, No Iterations 5
DILUPBiCGStab:  Solving for Uy, Initial residual = 0.0039026854, Final residual = 5.458416e-09, No Iterations 6
DICPCG:  Solving for p, Initial residual = 0.0060312663, Final residual = 5.5485212e-05, No Iterations 61
DICPCG:  Solving for p, Initial residual = 5.5262873e-05, Final residual = 4.6736328e-07, No Iterations 78
DICPCG:  Solving for p, Initial residual = 4.673136e-07, Final residual = 9.7791269e-09, No Iterations 33
time step continuity errors : sum local = 4.4116951e-10, global = -4.8321486e-11, cumulative = -4.8755259e-11
DILUPBiCGStab:  Solving for nuTilda, Initial residual = 0.014024738, Final residual = 3.8427159e-09, No Iterations 3
ExecutionTime = 1.13102 s  ClockTime = 1 s



volFieldValue mindomain_scalar write:
    min() of nuTilda = 1.2787843e-06 at location (0.011404732 0.0004006648 0.5) in cell 3
    min() of nut = 5.3974902e-07 at location (0.011404732 0.0004006648 0.5) in cell 3

volFieldValue mindomain_vector write:
    minMag() of U = 0.56340314 at location (1.9686737 0.0004006648 0.5) in cell 99

volFieldValue maxdomain_scalar write:
    max() of nuTilda = 7.1730673e-05 at location (1.9686737 0.012188314 0.5) in cell 1299
    max() of nut = 7.1730104e-05 at location (1.9686737 0.012188314 0.5) in cell 1299

volFieldValue maxdomain_vector write:
    maxMag() of U = 1.0039104 at location (1.9686737 0.09405476 0.5) in cell 4899

yPlus yplus_stats write:
    patch bottom y+ : min = 71.909645, max = 116.32437, average = 83.229975

Time = 45s

DILUPBiCGStab:  Solving for Ux, Initial residual = 0.0033537374, Final residual = 7.8802694e-09, No Iterations 6
DILUPBiCGStab:  Solving for Uy, Initial residual = 0.0042569881, Final residual = 3.4930885e-09, No Iterations 7
DICPCG:  Solving for p, Initial residual = 0.0065586896, Final residual = 6.509137e-05, No Iterations 61
DICPCG:  Solving for p, Initial residual = 6.5513855e-05, Final residual = 6.2394263e-07, No Iterations 68
DICPCG:  Solving for p, Initial residual = 6.2404543e-07, Final residual = 9.9627623e-09, No Iterations 31
time step continuity errors : sum local = 4.4637944e-10, global = 4.4249193e-11, cumulative = -4.5060654e-12
DILUPBiCGStab:  Solving for nuTilda, Initial residual = 0.010001061, Final residual = 3.2403643e-09, No Iterations 3
ExecutionTime = 1.152094 s  ClockTime = 1 s



volFieldValue mindomain_scalar write:
    min() of nuTilda = 1.2787844e-06 at location (0.011404732 0.0004006648 0.5) in cell 3
    min() of nut = 5.3974917e-07 at location (0.011404732 0.0004006648 0.5) in cell 3

volFieldValue mindomain_vector write:
    minMag() of U = 0.5255943 at location (1.9686737 0.0004006648 0.5) in cell 99

volFieldValue maxdomain_scalar write:
    max() of nuTilda = 7.2207159e-05 at location (1.9686737 0.012188314 0.5) in cell 1299
    max() of nut = 7.2206599e-05 at location (1.9686737 0.012188314 0.5) in cell 1299

volFieldValue maxdomain_vector write:
    maxMag() of U = 1.0039548 at location (1.9686737 0.090240215 0.5) in cell 4799

yPlus yplus_stats write:
    patch bottom y+ : min = 67.793453, max = 116.32433, average = 83.300612

Time = 46s

DILUPBiCGStab:  Solving for Ux, Initial residual = 0.0038839664, Final residual = 4.8602174e-09, No Iterations 5
DILUPBiCGStab:  Solving for Uy, Initial residual = 0.0038515543, Final residual = 5.97576e-09, No Iterations 6
DICPCG:  Solving for p, Initial residual = 0.005990581, Final residual = 5.7430978e-05, No Iterations 61
DICPCG:  Solving for p, Initial residual = 5.7179971e-05, Final residual = 5.627476e-07, No Iterations 77
DICPCG:  Solving for p, Initial residual = 5.6268466e-07, Final residual = 9.7410538e-09, No Iterations 35
time step continuity errors : sum local = 4.3875063e-10, global = -5.5526722e-11, cumulative = -6.0032787e-11
DILUPBiCGStab:  Solving for nuTilda, Initial residual = 0.013795238, Final residual = 3.2613424e-09, No Iterations 3
ExecutionTime = 1.173676 s  ClockTime = 1 s



volFieldValue mindomain_scalar write:
    min() of nuTilda = 1.2787829e-06 at location (0.011404732 0.0004006648 0.5) in cell 3
    min() of nut = 5.3974862e-07 at location (0.011404732 0.0004006648 0.5) in cell 3

volFieldValue mindomain_vector write:
    minMag() of U = 0.56454565 at location (1.9686737 0.0004006648 0.5) in cell 99

volFieldValue maxdomain_scalar write:
    max() of nuTilda = 7.266042e-05 at location (1.9686737 0.013396624 0.5) in cell 1399
    max() of nut = 7.2659866e-05 at location (1.9686737 0.013396624 0.5) in cell 1399

volFieldValue maxdomain_vector write:
    maxMag() of U = 1.0038983 at location (1.9686737 0.09405476 0.5) in cell 4899

yPlus yplus_stats write:
    patch bottom y+ : min = 72.033542, max = 116.32448, average = 83.233025

Time = 47s

DILUPBiCGStab:  Solving for Ux, Initial residual = 0.0033464028, Final residual = 9.2067585e-09, No Iterations 6
DILUPBiCGStab:  Solving for Uy, Initial residual = 0.0042008737, Final residual = 4.5669058e-09, No Iterations 7
DICPCG:  Solving for p, Initial residual = 0.0064974799, Final residual = 6.494065e-05, No Iterations 62
DICPCG:  Solving for p, Initial residual = 6.5378245e-05, Final residual = 6.3983688e-07, No Iterations 72
DICPCG:  Solving for p, Initial residual = 6.3993006e-07, Final residual = 9.8043737e-09, No Iterations 63
time step continuity errors : sum local = 4.3853693e-10, global = -1.874353e-11, cumulative = -7.8776318e-11
DILUPBiCGStab:  Solving for nuTilda, Initial residual = 0.0098581957, Final residual = 2.5129777e-09, No Iterations 3
ExecutionTime = 1.198348 s  ClockTime = 1 s



volFieldValue mindomain_scalar write:
    min() of nuTilda = 1.2787817e-06 at location (0.011404732 0.0004006648 0.5) in cell 3
    min() of nut = 5.3974703e-07 at location (0.011404732 0.0004006648 0.5) in cell 3

volFieldValue mindomain_vector write:
    minMag() of U = 0.52651658 at location (1.9686737 0.0004006648 0.5) in cell 99

volFieldValue maxdomain_scalar write:
    max() of nuTilda = 7.3103013e-05 at location (1.9686737 0.013396624 0.5) in cell 1399
    max() of nut = 7.3102468e-05 at location (1.9686737 0.013396624 0.5) in cell 1399

volFieldValue maxdomain_vector write:
    maxMag() of U = 1.0039437 at location (1.9686737 0.090240215 0.5) in cell 4799

yPlus yplus_stats write:
    patch bottom y+ : min = 67.894244, max = 116.32443, average = 83.311865

Time = 48s

DILUPBiCGStab:  Solving for Ux, Initial residual = 0.0038757025, Final residual = 4.736504e-09, No Iterations 5
DILUPBiCGStab:  Solving for Uy, Initial residual = 0.0037926423, Final residual = 7.078621e-09, No Iterations 6
DICPCG:  Solving for p, Initial residual = 0.0059378392, Final residual = 5.9130241e-05, No Iterations 61
DICPCG:  Solving for p, Initial residual = 5.8869152e-05, Final residual = 5.6151466e-07, No Iterations 77
DICPCG:  Solving for p, Initial residual = 5.6145015e-07, Final residual = 9.6050089e-09, No Iterations 35
time step continuity errors : sum local = 4.3187203e-10, global = -5.9234397e-11, cumulative = -1.3801072e-10
DILUPBiCGStab:  Solving for nuTilda, Initial residual = 0.013632331, Final residual = 2.8004637e-09, No Iterations 3
ExecutionTime = 1.22082 s  ClockTime = 1 s



volFieldValue mindomain_scalar write:
    min() of nuTilda = 1.2787792e-06 at location (0.011404732 0.0004006648 0.5) in cell 3
    min() of nut = 5.3974512e-07 at location (0.011404732 0.0004006648 0.5) in cell 3

volFieldValue mindomain_vector write:
    minMag() of U = 0.56553359 at location (1.9686737 0.0004006648 0.5) in cell 99

volFieldValue maxdomain_scalar write:
    max() of nuTilda = 7.351439e-05 at location (1.9686737 0.013396624 0.5) in cell 1399
    max() of nut = 7.3513851e-05 at location (1.9686737 0.013396624 0.5) in cell 1399

volFieldValue maxdomain_vector write:
    maxMag() of U = 1.003888 at location (1.9686737 0.09405476 0.5) in cell 4899

yPlus yplus_stats write:
    patch bottom y+ : min = 72.140654, max = 116.32457, average = 83.23949

Time = 49s

DILUPBiCGStab:  Solving for Ux, Initial residual = 0.0033367931, Final residual = 3.1886935e-09, No Iterations 6
[...]
    min() of nut = 5.3562797e-07 at location (0.011404732 0.0004006648 0.5) in cell 3

volFieldValue mindomain_vector write:
    minMag() of U = 0.55934255 at location (1.2535996 0.0004006648 0.5) in cell 85

volFieldValue maxdomain_scalar write:
    max() of nuTilda = 7.7747516e-05 at location (1.9686737 0.013396624 0.5) in cell 1399
    max() of nut = 7.7747042e-05 at location (1.9686737 0.013396624 0.5) in cell 1399

volFieldValue maxdomain_vector write:
    maxMag() of U = 1.0038577 at location (1.9686737 0.09405476 0.5) in cell 4899

yPlus yplus_stats write:
    patch bottom y+ : min = 71.469081, max = 116.32487, average = 83.089739

Time = 1989s

DILUPBiCGStab:  Solving for Ux, Initial residual = 0.0035241131, Final residual = 3.2244613e-09, No Iterations 5
DILUPBiCGStab:  Solving for Uy, Initial residual = 0.0039890624, Final residual = 7.0029279e-09, No Iterations 6
DICPCG:  Solving for p, Initial residual = 0.0063608714, Final residual = 5.8817351e-05, No Iterations 65
DICPCG:  Solving for p, Initial residual = 5.9613336e-05, Final residual = 5.785627e-07, No Iterations 70
DICPCG:  Solving for p, Initial residual = 5.7858625e-07, Final residual = 8.9452973e-09, No Iterations 62
time step continuity errors : sum local = 3.9448958e-10, global = -2.8589115e-11, cumulative = -2.3043726e-09
DILUPBiCGStab:  Solving for nuTilda, Initial residual = 0.011247438, Final residual = 1.5037322e-09, No Iterations 3
ExecutionTime = 50.922378 s  ClockTime = 50 s



volFieldValue mindomain_scalar write:
    min() of nuTilda = 1.2752065e-06 at location (0.011404732 0.0004006648 0.5) in cell 3
    min() of nut = 5.356266e-07 at location (0.011404732 0.0004006648 0.5) in cell 3

volFieldValue mindomain_vector write:
    minMag() of U = 0.53079907 at location (1.9686737 0.0004006648 0.5) in cell 99

volFieldValue maxdomain_scalar write:
    max() of nuTilda = 7.7746928e-05 at location (1.9686737 0.013396624 0.5) in cell 1399
    max() of nut = 7.7746455e-05 at location (1.9686737 0.013396624 0.5) in cell 1399

volFieldValue maxdomain_vector write:
    maxMag() of U = 1.0039171 at location (1.9686737 0.090240215 0.5) in cell 4799

yPlus yplus_stats write:
    patch bottom y+ : min = 68.361991, max = 116.32475, average = 83.513618

Time = 1990s

DILUPBiCGStab:  Solving for Ux, Initial residual = 0.0037003411, Final residual = 4.2667013e-09, No Iterations 5
DILUPBiCGStab:  Solving for Uy, Initial residual = 0.0040868836, Final residual = 1.1544024e-09, No Iterations 7
DICPCG:  Solving for p, Initial residual = 0.0060490839, Final residual = 5.9440116e-05, No Iterations 65
DICPCG:  Solving for p, Initial residual = 5.8693963e-05, Final residual = 5.8211767e-07, No Iterations 70
DICPCG:  Solving for p, Initial residual = 5.8209423e-07, Final residual = 8.6389516e-09, No Iterations 62
time step continuity errors : sum local = 3.8611906e-10, global = 2.8330436e-11, cumulative = -2.2760422e-09
DILUPBiCGStab:  Solving for nuTilda, Initial residual = 0.01121441, Final residual = 1.9167151e-09, No Iterations 3
ExecutionTime = 50.948339 s  ClockTime = 50 s



volFieldValue mindomain_scalar write:
    min() of nuTilda = 1.2752049e-06 at location (0.011404732 0.0004006648 0.5) in cell 3
    min() of nut = 5.3562557e-07 at location (0.011404732 0.0004006648 0.5) in cell 3

volFieldValue mindomain_vector write:
    minMag() of U = 0.55934255 at location (1.2535996 0.0004006648 0.5) in cell 85

volFieldValue maxdomain_scalar write:
    max() of nuTilda = 7.7747515e-05 at location (1.9686737 0.013396624 0.5) in cell 1399
    max() of nut = 7.7747042e-05 at location (1.9686737 0.013396624 0.5) in cell 1399

volFieldValue maxdomain_vector write:
    maxMag() of U = 1.0038577 at location (1.9686737 0.09405476 0.5) in cell 4899

yPlus yplus_stats write:
    patch bottom y+ : min = 71.469081, max = 116.32487, average = 83.089737

Time = 1991s

DILUPBiCGStab:  Solving for Ux, Initial residual = 0.0035241061, Final residual = 3.2244627e-09, No Iterations 5
DILUPBiCGStab:  Solving for Uy, Initial residual = 0.0039876815, Final residual = 7.0148278e-09, No Iterations 6
DICPCG:  Solving for p, Initial residual = 0.0063576577, Final residual = 5.887253e-05, No Iterations 65
DICPCG:  Solving for p, Initial residual = 5.9669001e-05, Final residual = 5.8695165e-07, No Iterations 70
DICPCG:  Solving for p, Initial residual = 5.8697575e-07, Final residual = 8.9665555e-09, No Iterations 62
time step continuity errors : sum local = 3.9542394e-10, global = -2.8902055e-11, cumulative = -2.3049443e-09
DILUPBiCGStab:  Solving for nuTilda, Initial residual = 0.011247466, Final residual = 1.5037368e-09, No Iterations 3
ExecutionTime = 50.979006 s  ClockTime = 50 s



volFieldValue mindomain_scalar write:
    min() of nuTilda = 1.2752044e-06 at location (0.011404732 0.0004006648 0.5) in cell 3
    min() of nut = 5.3562421e-07 at location (0.011404732 0.0004006648 0.5) in cell 3

volFieldValue mindomain_vector write:
    minMag() of U = 0.53079907 at location (1.9686737 0.0004006648 0.5) in cell 99

volFieldValue maxdomain_scalar write:
    max() of nuTilda = 7.7746928e-05 at location (1.9686737 0.013396624 0.5) in cell 1399
    max() of nut = 7.7746454e-05 at location (1.9686737 0.013396624 0.5) in cell 1399

volFieldValue maxdomain_vector write:
    maxMag() of U = 1.0039172 at location (1.9686737 0.090240215 0.5) in cell 4799

yPlus yplus_stats write:
    patch bottom y+ : min = 68.361991, max = 116.32475, average = 83.513617

Time = 1992s

DILUPBiCGStab:  Solving for Ux, Initial residual = 0.0037003344, Final residual = 4.2666911e-09, No Iterations 5
DILUPBiCGStab:  Solving for Uy, Initial residual = 0.0040975475, Final residual = 1.0926882e-09, No Iterations 7
DICPCG:  Solving for p, Initial residual = 0.0060315631, Final residual = 5.9152731e-05, No Iterations 65
DICPCG:  Solving for p, Initial residual = 5.8409346e-05, Final residual = 5.1570422e-07, No Iterations 71
DICPCG:  Solving for p, Initial residual = 5.1568292e-07, Final residual = 8.5188261e-09, No Iterations 61
time step continuity errors : sum local = 3.8075923e-10, global = 2.374322e-11, cumulative = -2.281201e-09
DILUPBiCGStab:  Solving for nuTilda, Initial residual = 0.011214435, Final residual = 1.9167237e-09, No Iterations 3
ExecutionTime = 51.005028 s  ClockTime = 50 s



volFieldValue mindomain_scalar write:
    min() of nuTilda = 1.2752028e-06 at location (0.011404732 0.0004006648 0.5) in cell 3
    min() of nut = 5.3562318e-07 at location (0.011404732 0.0004006648 0.5) in cell 3

volFieldValue mindomain_vector write:
    minMag() of U = 0.55934255 at location (1.2535996 0.0004006648 0.5) in cell 85

volFieldValue maxdomain_scalar write:
    max() of nuTilda = 7.7747514e-05 at location (1.9686737 0.013396624 0.5) in cell 1399
    max() of nut = 7.7747041e-05 at location (1.9686737 0.013396624 0.5) in cell 1399

volFieldValue maxdomain_vector write:
    maxMag() of U = 1.0038577 at location (1.9686737 0.09405476 0.5) in cell 4899

yPlus yplus_stats write:
    patch bottom y+ : min = 71.469081, max = 116.32487, average = 83.089737

Time = 1993s

DILUPBiCGStab:  Solving for Ux, Initial residual = 0.0035241117, Final residual = 3.2244585e-09, No Iterations 5
DILUPBiCGStab:  Solving for Uy, Initial residual = 0.0039817307, Final residual = 7.7654927e-09, No Iterations 6
DICPCG:  Solving for p, Initial residual = 0.0063394206, Final residual = 5.8758485e-05, No Iterations 65
DICPCG:  Solving for p, Initial residual = 5.9554456e-05, Final residual = 5.8592331e-07, No Iterations 70
DICPCG:  Solving for p, Initial residual = 5.8594754e-07, Final residual = 8.8401689e-09, No Iterations 62
time step continuity errors : sum local = 3.898454e-10, global = -2.8653784e-11, cumulative = -2.3098548e-09
DILUPBiCGStab:  Solving for nuTilda, Initial residual = 0.011247494, Final residual = 1.5037382e-09, No Iterations 3
ExecutionTime = 51.029272 s  ClockTime = 50 s



volFieldValue mindomain_scalar write:
    min() of nuTilda = 1.2752023e-06 at location (0.011404732 0.0004006648 0.5) in cell 3
    min() of nut = 5.3562182e-07 at location (0.011404732 0.0004006648 0.5) in cell 3

volFieldValue mindomain_vector write:
    minMag() of U = 0.53079907 at location (1.9686737 0.0004006648 0.5) in cell 99

volFieldValue maxdomain_scalar write:
    max() of nuTilda = 7.7746927e-05 at location (1.9686737 0.013396624 0.5) in cell 1399
    max() of nut = 7.7746453e-05 at location (1.9686737 0.013396624 0.5) in cell 1399

volFieldValue maxdomain_vector write:
    maxMag() of U = 1.0039171 at location (1.9686737 0.090240215 0.5) in cell 4799

yPlus yplus_stats write:
    patch bottom y+ : min = 68.361991, max = 116.32475, average = 83.513615

Time = 1994s

DILUPBiCGStab:  Solving for Ux, Initial residual = 0.0037003231, Final residual = 4.2666818e-09, No Iterations 5
DILUPBiCGStab:  Solving for Uy, Initial residual = 0.0040893526, Final residual = 1.1066424e-09, No Iterations 7
DICPCG:  Solving for p, Initial residual = 0.0060301681, Final residual = 5.9444892e-05, No Iterations 65
DICPCG:  Solving for p, Initial residual = 5.8697651e-05, Final residual = 5.8021952e-07, No Iterations 70
DICPCG:  Solving for p, Initial residual = 5.8019592e-07, Final residual = 8.7262293e-09, No Iterations 62
time step continuity errors : sum local = 3.9002629e-10, global = 2.8265021e-11, cumulative = -2.2815898e-09
DILUPBiCGStab:  Solving for nuTilda, Initial residual = 0.011214462, Final residual = 1.9167255e-09, No Iterations 3
ExecutionTime = 51.059137 s  ClockTime = 50 s



volFieldValue mindomain_scalar write:
    min() of nuTilda = 1.2752008e-06 at location (0.011404732 0.0004006648 0.5) in cell 3
    min() of nut = 5.3562079e-07 at location (0.011404732 0.0004006648 0.5) in cell 3

volFieldValue mindomain_vector write:
    minMag() of U = 0.55934255 at location (1.2535996 0.0004006648 0.5) in cell 85

volFieldValue maxdomain_scalar write:
    max() of nuTilda = 7.7747514e-05 at location (1.9686737 0.013396624 0.5) in cell 1399
    max() of nut = 7.774704e-05 at location (1.9686737 0.013396624 0.5) in cell 1399

volFieldValue maxdomain_vector write:
    maxMag() of U = 1.0038577 at location (1.9686737 0.09405476 0.5) in cell 4899

yPlus yplus_stats write:
    patch bottom y+ : min = 71.469081, max = 116.32487, average = 83.089736

Time = 1995s

DILUPBiCGStab:  Solving for Ux, Initial residual = 0.0035241242, Final residual = 3.2244615e-09, No Iterations 5
DILUPBiCGStab:  Solving for Uy, Initial residual = 0.0039890986, Final residual = 7.0030814e-09, No Iterations 6
DICPCG:  Solving for p, Initial residual = 0.0063606626, Final residual = 5.8817609e-05, No Iterations 65
DICPCG:  Solving for p, Initial residual = 5.9613609e-05, Final residual = 5.7860592e-07, No Iterations 70
DICPCG:  Solving for p, Initial residual = 5.7862946e-07, Final residual = 8.9491297e-09, No Iterations 62
time step continuity errors : sum local = 3.9465884e-10, global = -2.8599281e-11, cumulative = -2.3101891e-09
DILUPBiCGStab:  Solving for nuTilda, Initial residual = 0.01124752, Final residual = 1.5037438e-09, No Iterations 3
ExecutionTime = 51.082888 s  ClockTime = 50 s



volFieldValue mindomain_scalar write:
    min() of nuTilda = 1.2752003e-06 at location (0.011404732 0.0004006648 0.5) in cell 3
    min() of nut = 5.3561943e-07 at location (0.011404732 0.0004006648 0.5) in cell 3

volFieldValue mindomain_vector write:
    minMag() of U = 0.53079907 at location (1.9686737 0.0004006648 0.5) in cell 99

volFieldValue maxdomain_scalar write:
    max() of nuTilda = 7.7746926e-05 at location (1.9686737 0.013396624 0.5) in cell 1399
    max() of nut = 7.7746452e-05 at location (1.9686737 0.013396624 0.5) in cell 1399

volFieldValue maxdomain_vector write:
    maxMag() of U = 1.0039172 at location (1.9686737 0.090240215 0.5) in cell 4799

yPlus yplus_stats write:
    patch bottom y+ : min = 68.361991, max = 116.32475, average = 83.513616

Time = 1996s

DILUPBiCGStab:  Solving for Ux, Initial residual = 0.0037003226, Final residual = 4.2667012e-09, No Iterations 5
DILUPBiCGStab:  Solving for Uy, Initial residual = 0.0040868435, Final residual = 1.1543184e-09, No Iterations 7
DICPCG:  Solving for p, Initial residual = 0.0060489241, Final residual = 5.9440898e-05, No Iterations 65
DICPCG:  Solving for p, Initial residual = 5.8694729e-05, Final residual = 5.8210033e-07, No Iterations 70
DICPCG:  Solving for p, Initial residual = 5.8207689e-07, Final residual = 8.6419377e-09, No Iterations 62
time step continuity errors : sum local = 3.8625272e-10, global = 2.8340607e-11, cumulative = -2.2818485e-09
DILUPBiCGStab:  Solving for nuTilda, Initial residual = 0.011214492, Final residual = 1.9167326e-09, No Iterations 3
ExecutionTime = 51.108807 s  ClockTime = 50 s



volFieldValue mindomain_scalar write:
    min() of nuTilda = 1.2751987e-06 at location (0.011404732 0.0004006648 0.5) in cell 3
    min() of nut = 5.356184e-07 at location (0.011404732 0.0004006648 0.5) in cell 3

volFieldValue mindomain_vector write:
    minMag() of U = 0.55934255 at location (1.2535996 0.0004006648 0.5) in cell 85

volFieldValue maxdomain_scalar write:
    max() of nuTilda = 7.7747513e-05 at location (1.9686737 0.013396624 0.5) in cell 1399
    max() of nut = 7.7747039e-05 at location (1.9686737 0.013396624 0.5) in cell 1399

volFieldValue maxdomain_vector write:
    maxMag() of U = 1.0038577 at location (1.9686737 0.09405476 0.5) in cell 4899

yPlus yplus_stats write:
    patch bottom y+ : min = 71.469081, max = 116.32487, average = 83.089734

Time = 1997s

DILUPBiCGStab:  Solving for Ux, Initial residual = 0.0035240949, Final residual = 3.2244624e-09, No Iterations 5
DILUPBiCGStab:  Solving for Uy, Initial residual = 0.0039876445, Final residual = 7.0147017e-09, No Iterations 6
DICPCG:  Solving for p, Initial residual = 0.0063578644, Final residual = 5.8872507e-05, No Iterations 65
DICPCG:  Solving for p, Initial residual = 5.9668965e-05, Final residual = 5.869564e-07, No Iterations 70
DICPCG:  Solving for p, Initial residual = 5.869805e-07, Final residual = 8.9638688e-09, No Iterations 62
time step continuity errors : sum local = 3.953055e-10, global = -2.8897678e-11, cumulative = -2.3107461e-09
DILUPBiCGStab:  Solving for nuTilda, Initial residual = 0.011247546, Final residual = 1.5037456e-09, No Iterations 3
ExecutionTime = 51.13626 s  ClockTime = 50 s



volFieldValue mindomain_scalar write:
    min() of nuTilda = 1.2751982e-06 at location (0.011404732 0.0004006648 0.5) in cell 3
    min() of nut = 5.3561704e-07 at location (0.011404732 0.0004006648 0.5) in cell 3

volFieldValue mindomain_vector write:
    minMag() of U = 0.53079907 at location (1.9686737 0.0004006648 0.5) in cell 99

volFieldValue maxdomain_scalar write:
    max() of nuTilda = 7.7746925e-05 at location (1.9686737 0.013396624 0.5) in cell 1399
    max() of nut = 7.7746451e-05 at location (1.9686737 0.013396624 0.5) in cell 1399

volFieldValue maxdomain_vector write:
    maxMag() of U = 1.0039171 at location (1.9686737 0.090240215 0.5) in cell 4799

yPlus yplus_stats write:
    patch bottom y+ : min = 68.361991, max = 116.32475, average = 83.513614

Time = 1998s

DILUPBiCGStab:  Solving for Ux, Initial residual = 0.0037003528, Final residual = 4.2666913e-09, No Iterations 5
DILUPBiCGStab:  Solving for Uy, Initial residual = 0.0040975866, Final residual = 1.0927603e-09, No Iterations 7
DICPCG:  Solving for p, Initial residual = 0.0060317207, Final residual = 5.9151364e-05, No Iterations 65
DICPCG:  Solving for p, Initial residual = 5.8408004e-05, Final residual = 5.1570244e-07, No Iterations 71
DICPCG:  Solving for p, Initial residual = 5.1568114e-07, Final residual = 8.518815e-09, No Iterations 61
time step continuity errors : sum local = 3.8075888e-10, global = 2.3747615e-11, cumulative = -2.2869985e-09
DILUPBiCGStab:  Solving for nuTilda, Initial residual = 0.011214516, Final residual = 1.9167351e-09, No Iterations 3
ExecutionTime = 51.162951 s  ClockTime = 50 s



volFieldValue mindomain_scalar write:
    min() of nuTilda = 1.2751966e-06 at location (0.011404732 0.0004006648 0.5) in cell 3
    min() of nut = 5.3561602e-07 at location (0.011404732 0.0004006648 0.5) in cell 3

volFieldValue mindomain_vector write:
    minMag() of U = 0.55934255 at location (1.2535996 0.0004006648 0.5) in cell 85

volFieldValue maxdomain_scalar write:
    max() of nuTilda = 7.7747512e-05 at location (1.9686737 0.013396624 0.5) in cell 1399
    max() of nut = 7.7747038e-05 at location (1.9686737 0.013396624 0.5) in cell 1399

volFieldValue maxdomain_vector write:
    maxMag() of U = 1.0038577 at location (1.9686737 0.09405476 0.5) in cell 4899

yPlus yplus_stats write:
    patch bottom y+ : min = 71.469081, max = 116.32487, average = 83.089735

Time = 1999s

DILUPBiCGStab:  Solving for Ux, Initial residual = 0.0035241228, Final residual = 3.2244587e-09, No Iterations 5
DILUPBiCGStab:  Solving for Uy, Initial residual = 0.0039817669, Final residual = 7.7656565e-09, No Iterations 6
DICPCG:  Solving for p, Initial residual = 0.0063392119, Final residual = 5.875941e-05, No Iterations 65
DICPCG:  Solving for p, Initial residual = 5.9555406e-05, Final residual = 5.8599614e-07, No Iterations 70
DICPCG:  Solving for p, Initial residual = 5.8602038e-07, Final residual = 8.8435057e-09, No Iterations 62
time step continuity errors : sum local = 3.8999284e-10, global = -2.8659227e-11, cumulative = -2.3156578e-09
DILUPBiCGStab:  Solving for nuTilda, Initial residual = 0.011247576, Final residual = 1.5037497e-09, No Iterations 3
ExecutionTime = 51.188974 s  ClockTime = 51 s



volFieldValue mindomain_scalar write:
    min() of nuTilda = 1.2751961e-06 at location (0.011404732 0.0004006648 0.5) in cell 3
    min() of nut = 5.3561465e-07 at location (0.011404732 0.0004006648 0.5) in cell 3

volFieldValue mindomain_vector write:
    minMag() of U = 0.53079907 at location (1.9686737 0.0004006648 0.5) in cell 99

volFieldValue maxdomain_scalar write:
    max() of nuTilda = 7.7746924e-05 at location (1.9686737 0.013396624 0.5) in cell 1399
    max() of nut = 7.7746451e-05 at location (1.9686737 0.013396624 0.5) in cell 1399

volFieldValue maxdomain_vector write:
    maxMag() of U = 1.0039172 at location (1.9686737 0.090240215 0.5) in cell 4799

yPlus yplus_stats write:
    patch bottom y+ : min = 68.361991, max = 116.32475, average = 83.513613

Time = 2000s

DILUPBiCGStab:  Solving for Ux, Initial residual = 0.0037003045, Final residual = 4.2666817e-09, No Iterations 5
DILUPBiCGStab:  Solving for Uy, Initial residual = 0.0040893126, Final residual = 1.1065681e-09, No Iterations 7
DICPCG:  Solving for p, Initial residual = 0.0060300085, Final residual = 5.9445962e-05, No Iterations 65
DICPCG:  Solving for p, Initial residual = 5.86987e-05, Final residual = 5.8022553e-07, No Iterations 70
DICPCG:  Solving for p, Initial residual = 5.8020193e-07, Final residual = 8.7293135e-09, No Iterations 62
time step continuity errors : sum local = 3.9016446e-10, global = 2.8275237e-11, cumulative = -2.2873825e-09
DILUPBiCGStab:  Solving for nuTilda, Initial residual = 0.011214544, Final residual = 1.9167431e-09, No Iterations 3
ExecutionTime = 51.229397 s  ClockTime = 51 s



volFieldValue mindomain_scalar write:
    min() of nuTilda = 1.2751946e-06 at location (0.011404732 0.0004006648 0.5) in cell 3
    min() of nut = 5.3561363e-07 at location (0.011404732 0.0004006648 0.5) in cell 3

volFieldValue mindomain_vector write:
    minMag() of U = 0.55934255 at location (1.2535996 0.0004006648 0.5) in cell 85

volFieldValue maxdomain_scalar write:
    max() of nuTilda = 7.7747511e-05 at location (1.9686737 0.013396624 0.5) in cell 1399
    max() of nut = 7.7747037e-05 at location (1.9686737 0.013396624 0.5) in cell 1399

volFieldValue maxdomain_vector write:
    maxMag() of U = 1.0038577 at location (1.9686737 0.09405476 0.5) in cell 4899

yPlus yplus_stats write:
    patch bottom y+ : min = 71.469081, max = 116.32487, average = 83.089734

End

