/*---------------------------------------------------------------------------*\
  =========                 |
  \\      /  F ield         | OpenFOAM: The Open Source CFD Toolbox
   \\    /   O peration     | Website:  https://openfoam.org
    \\  /    A nd           | Version:  12
     \\/     M anipulation  |
\*---------------------------------------------------------------------------*/
Build  : 12-86e126a7bc4d
Exec   : checkMesh -case ./GT3/RANS-kklo_TU_alta/processor1
Date   : Jun 20 2026
Time   : 18:44:13
Host   : "NotebookdoDan"
PID    : 96025
I/O    : uncollated
Case   : ./GT3/RANS-kklo_TU_alta/processor1
nProcs : 1
sigFpe : Enabling floating point exception trapping (FOAM_SIGFPE).
fileModificationChecking : Monitoring run-time modified files using timeStampMaster (fileModificationSkew 10)
allowSystemOperations : Allowing user-supplied system call operations

// * * * * * * * * * * * * * * * * * * * * * * * * * * * * * * * * * * * * * //
Create time

Create polyMesh for time = 0

Time = 0s

Mesh stats
    points:           33920
    internal points:  0
    faces:            67044
    internal faces:   33126
    cells:            16695
    faces per cell:   6
    boundary patches: 7
    point zones:      0
    face zones:       0
    cell zones:       0

Overall number of cells of each type:
    hexahedra:     16695
    prisms:        0
    wedges:        0
    pyramids:      0
    tet wedges:    0
    tetrahedra:    0
    polyhedra:     0

Checking topology...
    Boundary definition OK.
    Cell to face addressing OK.
    Point usage OK.
    Upper triangular ordering OK.
    Face vertices OK.
    Number of regions: 1 (OK).

Checking patch topology for multiply connected surfaces...
    Patch               Faces    Points   Surface topology                  
    lowerWall           124      250      ok (non-closed singly connected)  
    lowerSymmetry       35       72       ok (non-closed singly connected)  
    upperSymmetry       159      320      ok (non-closed singly connected)  
    inlet               105      212      ok (non-closed singly connected)  
    outlet              0        0        ok (empty)                        
    defaultFaces        33390    33920    ok (non-closed singly connected)  

Checking geometry...
    Overall domain bounding box (-0.05 0 0) (0.015069452 0.175 0.1)
    Mesh has 2 geometric (non-empty/wedge) directions (1 1 0)
    Mesh has 2 solution (non-empty) directions (1 1 0)
    All edges aligned with or perpendicular to non-empty directions.
    Max cell openness = 2.3724221e-16 OK.
    Max aspect ratio = 314.13055 OK.
    Minimum face area = 1.2200585e-09. Maximum face area = 0.0010170124.  Face area magnitudes OK.
    Min volume = 1.2200585e-10. Max volume = 6.4981933e-06.  Total volume = 0.0011387154.  Cell volumes OK.
    Mesh non-orthogonality Max: 0 average: 0
    Non-orthogonality check OK.
    Face pyramids OK.
    Max skewness = 4.2773052e-12 OK.
    Coupled point location match (average 0) OK.

Mesh OK.

End

