/*---------------------------------------------------------------------------*\
  =========                 |
  \\      /  F ield         | OpenFOAM: The Open Source CFD Toolbox
   \\    /   O peration     | Website:  https://openfoam.org
    \\  /    A nd           | Version:  12
     \\/     M anipulation  |
\*---------------------------------------------------------------------------*/
Build  : 12-86e126a7bc4d
Exec   : checkMesh -case ./GT1/turbulent_planar
Date   : Jun 20 2026
Time   : 18:44:14
Host   : "NotebookdoDan"
PID    : 96089
I/O    : uncollated
Case   : ./GT1/turbulent_planar
nProcs : 1
sigFpe : Enabling floating point exception trapping (FOAM_SIGFPE).
fileModificationChecking : Monitoring run-time modified files using timeStampMaster (fileModificationSkew 10)
allowSystemOperations : Allowing user-supplied system call operations

// * * * * * * * * * * * * * * * * * * * * * * * * * * * * * * * * * * * * * //
Create time

Create polyMesh for time = 0

Time = 0s

Mesh stats
    points:           6262
    internal points:  0
    faces:            12130
    internal faces:   5870
    cells:            3000
    faces per cell:   6
    boundary patches: 6
    point zones:      0
    face zones:       0
    cell zones:       0

Overall number of cells of each type:
    hexahedra:     3000
    prisms:        0
    wedges:        0
    pyramids:      0
    tet wedges:    0
    tetrahedra:    0
    polyhedra:     0

Checking topology...
    Boundary definition OK.
    Cell to face addressing OK.
    Point usage OK.
    Upper triangular ordering OK.
    Face vertices OK.
    Number of regions: 1 (OK).

Checking patch topology for multiply connected surfaces...
    Patch               Faces    Points   Surface topology                  
    top                 100      202      ok (non-closed singly connected)  
    inlet               30       62       ok (non-closed singly connected)  
    outlet              30       62       ok (non-closed singly connected)  
    bottom              100      202      ok (non-closed singly connected)  
    front               3000     3131     ok (non-closed singly connected)  
    back                3000     3131     ok (non-closed singly connected)  

Checking geometry...
    Overall domain bounding box (0 0 0) (8 0.1 0.1)
    Mesh has 2 geometric (non-empty/wedge) directions (1 1 0)
    Mesh has 2 solution (non-empty) directions (1 1 0)
    All edges aligned with or perpendicular to non-empty directions.
    Max cell openness = 2.16840434497e-16 OK.
    Max aspect ratio = 95.1283225082 OK.
    Minimum face area = 6.72775450177e-05. Maximum face area = 0.008.  Face area magnitudes OK.
    Min volume = 6.72775450177e-06. Max volume = 6.72775450177e-05.  Total volume = 0.08.  Cell volumes OK.
    Mesh non-orthogonality Max: 0 average: 0
    Non-orthogonality check OK.
    Face pyramids OK.
    Max skewness = 5.70730324829e-13 OK.
    Coupled point location match (average 0) OK.

Mesh OK.

End

