/*---------------------------------------------------------------------------*\
  =========                 |
  \\      /  F ield         | OpenFOAM: The Open Source CFD Toolbox
   \\    /   O peration     | Website:  https://openfoam.org
    \\  /    A nd           | Version:  12
     \\/     M anipulation  |
\*---------------------------------------------------------------------------*/
Build  : 12-86e126a7bc4d
Exec   : checkMesh -case ./GT3/RANS-kklo_TU_alta/processor2
Date   : Jun 20 2026
Time   : 18:44:14
Host   : "NotebookdoDan"
PID    : 96065
I/O    : uncollated
Case   : ./GT3/RANS-kklo_TU_alta/processor2
nProcs : 1
sigFpe : Enabling floating point exception trapping (FOAM_SIGFPE).
fileModificationChecking : Monitoring run-time modified files using timeStampMaster (fileModificationSkew 10)
allowSystemOperations : Allowing user-supplied system call operations

// * * * * * * * * * * * * * * * * * * * * * * * * * * * * * * * * * * * * * //
Create time

Create polyMesh for time = 0

Time = 0s

Mesh stats
    points:           33920
    internal points:  0
    faces:            67044
    internal faces:   33126
    cells:            16695
    faces per cell:   6
    boundary patches: 8
    point zones:      0
    face zones:       0
    cell zones:       0

Overall number of cells of each type:
    hexahedra:     16695
    prisms:        0
    wedges:        0
    pyramids:      0
    tet wedges:    0
    tetrahedra:    0
    polyhedra:     0

Checking topology...
    Boundary definition OK.
    Cell to face addressing OK.
    Point usage OK.
    Upper triangular ordering OK.
    Face vertices OK.
    Number of regions: 1 (OK).

Checking patch topology for multiply connected surfaces...
    Patch               Faces    Points   Surface topology                  
    lowerWall           159      320      ok (non-closed singly connected)  
    lowerSymmetry       0        0        ok (empty)                        
    upperSymmetry       159      320      ok (non-closed singly connected)  
    inlet               0        0        ok (empty)                        
    outlet              0        0        ok (empty)                        
    defaultFaces        33390    33920    ok (non-closed singly connected)  

Checking geometry...
    Overall domain bounding box (0.10150317 0 0) (0.55250961 0.175 0.1)
    Mesh has 2 geometric (non-empty/wedge) directions (1 1 0)
    Mesh has 2 solution (non-empty) directions (1 1 0)
    All edges aligned with or perpendicular to non-empty directions.
    Max cell openness = 3.3152184e-16 OK.
    Max aspect ratio = 283.2808 OK.
    Minimum face area = 2.2751723e-08. Maximum face area = 0.0010170124.  Face area magnitudes OK.
    Min volume = 2.2751723e-09. Max volume = 5.8600267e-06.  Total volume = 0.0078926126.  Cell volumes OK.
    Mesh non-orthogonality Max: 0 average: 0
    Non-orthogonality check OK.
    Face pyramids OK.
    Max skewness = 1.6920299e-11 OK.
    Coupled point location match (average 0) OK.

Mesh OK.

End

