/*---------------------------------------------------------------------------*\
  =========                 |
  \\      /  F ield         | OpenFOAM: The Open Source CFD Toolbox
   \\    /   O peration     | Website:  https://openfoam.org
    \\  /    A nd           | Version:  12
     \\/     M anipulation  |
\*---------------------------------------------------------------------------*/
Build  : 12-86e126a7bc4d
Exec   : checkMesh -case ./GT2/SRS/LES-WALE_LRN
Date   : Jun 20 2026
Time   : 18:44:06
Host   : "NotebookdoDan"
PID    : 95784
I/O    : uncollated
Case   : ./GT2/SRS/LES-WALE_LRN
nProcs : 1
sigFpe : Enabling floating point exception trapping (FOAM_SIGFPE).
fileModificationChecking : Monitoring run-time modified files using timeStampMaster (fileModificationSkew 10)
allowSystemOperations : Allowing user-supplied system call operations

// * * * * * * * * * * * * * * * * * * * * * * * * * * * * * * * * * * * * * //
Create time

Create polyMesh for time = 0

Time = 0s

Mesh stats
    points:           26578
    internal points:  0
    faces:            52456
    internal faces:   25880
    cells:            13056
    faces per cell:   6
    boundary patches: 7
    point zones:      0
    face zones:       0
    cell zones:       0

Overall number of cells of each type:
    hexahedra:     13056
    prisms:        0
    wedges:        0
    pyramids:      0
    tet wedges:    0
    tetrahedra:    0
    polyhedra:     0

Checking topology...
    Boundary definition OK.
    Cell to face addressing OK.
    Point usage OK.
    Upper triangular ordering OK.
    Face vertices OK.
    Number of regions: 1 (OK).

Checking patch topology for multiply connected surfaces...
    Patch               Faces    Points   Surface topology                  
    bottom              112      226      ok (non-closed singly connected)  
    back                13056    13289    ok (non-closed singly connected)  
    front               13056    13289    ok (non-closed singly connected)  
    inlet               96       194      ok (non-closed singly connected)  
    outlet              96       194      ok (non-closed singly connected)  
    top                 136      274      ok (non-closed singly connected)  
    slipsurface         24       50       ok (non-closed singly connected)  

Checking geometry...
    Overall domain bounding box (-0.33333 0 0) (2 1 1)
    Mesh has 2 geometric (non-empty/wedge) directions (1 1 0)
    Mesh has 2 solution (non-empty) directions (1 1 0)
    All edges aligned with or perpendicular to non-empty directions.
 ***High aspect ratio cells found, Max aspect ratio: 21429.367, number of cells 2755
    Minimum face area = 8.0389731e-09. Maximum face area = 0.11485094.  Face area magnitudes OK.
    Min volume = 8.0389731e-09. Max volume = 0.0049338205.  Total volume = 2.33333.  Cell volumes OK.
    Mesh non-orthogonality Max: 6.6681853e-06 average: 0
    Non-orthogonality check OK.
    Face pyramids OK.
    Max skewness = 1.8824581e-11 OK.
    Coupled point location match (average 0) OK.

Failed 1 mesh checks.

End

