/*---------------------------------------------------------------------------*\
  =========                 |
  \\      /  F ield         | OpenFOAM: The Open Source CFD Toolbox
   \\    /   O peration     | Website:  https://openfoam.org
    \\  /    A nd           | Version:  12
     \\/     M anipulation  |
\*---------------------------------------------------------------------------*/
Build  : 12-86e126a7bc4d
Exec   : foamRun
Date   : Jun 14 2026
Time   : 18:58:53
Host   : "NotebookdoDan"
PID    : 8541
I/O    : uncollated
Case   : /home/danilom/OpenFOAM/danilom-12/run/GT1/laminar
nProcs : 1
sigFpe : Enabling floating point exception trapping (FOAM_SIGFPE).
fileModificationChecking : Monitoring run-time modified files using timeStampMaster (fileModificationSkew 10)
allowSystemOperations : Allowing user-supplied system call operations

// * * * * * * * * * * * * * * * * * * * * * * * * * * * * * * * * * * * * * //
Create time

Create mesh for time = 0

Selecting solver incompressibleFluid
Selecting viscosity model constant
Selecting turbulence model type laminar
Selecting laminar stress model Stokes
No MRF models present


SIMPLE: Convergence criteria found
        p: tolerance 1e-06
        U: tolerance 1e-06
        "(k|omega)": tolerance 1e-06


SIMPLE: Operating solver in steady-state mode with 1 outer corrector
SIMPLE: Operating solver in SIMPLE mode



Starting time loop

    - selecting all cells
    - selected 3000 cell(s) with volume 0.0013959798681


    - selecting all cells
    - selected 3000 cell(s) with volume 0.0013959798681


    - selecting all cells
    - selected 3000 cell(s) with volume 0.0013959798681


    - selecting all cells
    - selected 3000 cell(s) with volume 0.0013959798681


    - selecting all cells
    - selected 3000 cell(s) with volume 0.0013959798681


    - selecting all cells
    - selected 3000 cell(s) with volume 0.0013959798681


wallShearStress wallShearStress1:
    processing all wall patches



volFieldValue mindomain_scalar write:
    min() of p = 0 at location (0.04 0.00560560819347 0.0999999999998) in cell 0

volFieldValue mindomain_vector write:
    minMag() of U = 1 at location (0.04 0.00560560819347 0.0999999999998) in cell 0

volFieldValue maxdomain_scalar write:
    max() of p = 0 at location (0.04 0.00560560819347 0.0999999999998) in cell 0

volFieldValue maxdomain_vector write:
    maxMag() of U = 1 at location (0.04 0.00560560819347 0.0999999999998) in cell 0

yPlus yplus_stats write:
    patch top y+ : min = 0.458164194467, max = 0.458164194467, average = 0.458164194467

Time = 1s

DILUPBiCGStab:  Solving for Ux, Initial residual = 1, Final residual = 4.81984188353e-13, No Iterations 3
DILUPBiCGStab:  Solving for Uy, Initial residual = 0.996281058925, Final residual = 7.51632605334e-10, No Iterations 3
DILUPBiCGStab:  Solving for Uz, Initial residual = 0.957879700681, Final residual = 3.84998890559e-09, No Iterations 3
DICPCG:  Solving for p, Initial residual = 1, Final residual = 0.00827639646889, No Iterations 101
DICPCG:  Solving for p, Initial residual = 4.09031933628e-05, Final residual = 3.33594622517e-07, No Iterations 3
DICPCG:  Solving for p, Initial residual = 3.33607661375e-07, Final residual = 4.22134092702e-09, No Iterations 4
time step continuity errors : sum local = 1.72632294467e-09, global = -1.81647417322e-10, cumulative = -1.81647417322e-10
ExecutionTime = 0.14051 s  ClockTime = 0 s



volFieldValue mindomain_scalar write:
    min() of p = 0.0617701308109 at location (7.96 0.0127006636098 0.0999999999999) in cell 2971

volFieldValue mindomain_vector write:
    minMag() of U = 0.475621947242 at location (7.96 0.0995649406574 0.1) in cell 2999

volFieldValue maxdomain_scalar write:
    max() of p = 12.4734741292 at location (0.04 0.0995649406574 0.1) in cell 29

volFieldValue maxdomain_vector write:
    maxMag() of U = 1.0307508969 at location (7.96 0.0199789247164 0.1) in cell 2972

yPlus yplus_stats write:
    patch top y+ : min = 0.315974539352, max = 0.316248375244, average = 0.315980324581

Time = 2s

DILUPBiCGStab:  Solving for Ux, Initial residual = 0.190492552055, Final residual = 1.17335807383e-10, No Iterations 3
DILUPBiCGStab:  Solving for Uy, Initial residual = 0.184444707569, Final residual = 6.13921556878e-10, No Iterations 3
DILUPBiCGStab:  Solving for Uz, Initial residual = 0.52387780626, Final residual = 5.37206111899e-10, No Iterations 4
DICPCG:  Solving for p, Initial residual = 0.00845199985735, Final residual = 3.83829890456e-05, No Iterations 101
DICPCG:  Solving for p, Initial residual = 2.5630350965e-05, Final residual = 1.64080682085e-07, No Iterations 3
DICPCG:  Solving for p, Initial residual = 1.64084256564e-07, Final residual = 6.11954499773e-09, No Iterations 3
time step continuity errors : sum local = 2.63826213482e-09, global = -3.47521647936e-10, cumulative = -5.29169065259e-10
ExecutionTime = 0.157841 s  ClockTime = 0 s



volFieldValue mindomain_scalar write:
    min() of p = 0.0833093779462 at location (7.96 0.0127006636098 0.0999999999999) in cell 2971

volFieldValue mindomain_vector write:
    minMag() of U = 0.27820697097 at location (7.96 0.0995649406574 0.1) in cell 2999

volFieldValue maxdomain_scalar write:
    max() of p = 16.8878923245 at location (0.04 0.0995649406574 0.1) in cell 29

volFieldValue maxdomain_vector write:
    maxMag() of U = 1.0684921336 at location (7.96 0.0199789247164 0.1) in cell 2972

yPlus yplus_stats write:
    patch top y+ : min = 0.241660210793, max = 0.242398391849, average = 0.2416717574

Time = 3s

DILUPBiCGStab:  Solving for Ux, Initial residual = 0.0892128790156, Final residual = 9.13595347505e-11, No Iterations 3
DILUPBiCGStab:  Solving for Uy, Initial residual = 0.10580416076, Final residual = 7.64758083574e-09, No Iterations 3
DILUPBiCGStab:  Solving for Uz, Initial residual = 0.190430089382, Final residual = 3.3631890678e-09, No Iterations 3
DICPCG:  Solving for p, Initial residual = 0.00686026115944, Final residual = 3.26811272541e-05, No Iterations 100
DICPCG:  Solving for p, Initial residual = 4.10741238085e-05, Final residual = 2.70803659698e-07, No Iterations 4
DICPCG:  Solving for p, Initial residual = 2.70811771996e-07, Final residual = 6.98288533366e-09, No Iterations 7
time step continuity errors : sum local = 2.16153614466e-09, global = 4.10464429132e-10, cumulative = -1.18704636127e-10
ExecutionTime = 0.173717 s  ClockTime = 0 s



volFieldValue mindomain_scalar write:
    min() of p = 0.070782246571 at location (7.96 0.0127006636098 0.0999999999999) in cell 2971

volFieldValue mindomain_vector write:
    minMag() of U = 0.192135240303 at location (0.2 0.0995649406574 0.1) in cell 89

volFieldValue maxdomain_scalar write:
    max() of p = 14.4303090385 at location (0.04 0.0995649406574 0.1) in cell 29

volFieldValue maxdomain_vector write:
    maxMag() of U = 1.097706483 at location (7.96 0.0199789247164 0.1) in cell 2972

yPlus yplus_stats write:
    patch top y+ : min = 0.200828183472, max = 0.202104482496, average = 0.2008464843

Time = 4s

DILUPBiCGStab:  Solving for Ux, Initial residual = 0.0543173885358, Final residual = 7.65037809682e-11, No Iterations 3
DILUPBiCGStab:  Solving for Uy, Initial residual = 0.0597130171043, Final residual = 5.17989418124e-09, No Iterations 3
DILUPBiCGStab:  Solving for Uz, Initial residual = 0.0780058353732, Final residual = 1.45921442818e-09, No Iterations 3
DICPCG:  Solving for p, Initial residual = 0.00826290448107, Final residual = 5.78856290339e-05, No Iterations 100
DICPCG:  Solving for p, Initial residual = 8.72991639989e-05, Final residual = 2.34843587317e-07, No Iterations 4
DICPCG:  Solving for p, Initial residual = 2.34856859829e-07, Final residual = 7.6938927403e-09, No Iterations 7
time step continuity errors : sum local = 1.70525962751e-09, global = 2.98312100834e-10, cumulative = 1.79607464707e-10
ExecutionTime = 0.190621 s  ClockTime = 0 s



volFieldValue mindomain_scalar write:
    min() of p = 0.0532027384919 at location (7.96 0.00560560819347 0.0999999999998) in cell 2970

volFieldValue mindomain_vector write:
    minMag() of U = 0.148295681695 at location (0.2 0.0995649406574 0.1) in cell 89

volFieldValue maxdomain_scalar write:
    max() of p = 10.9141046164 at location (0.04 0.0995649406574 0.1) in cell 29

volFieldValue maxdomain_vector write:
    maxMag() of U = 1.11799435711 at location (0.12 0.0267991468551 0.1) in cell 33

yPlus yplus_stats write:
    patch top y+ : min = 0.176435266769, max = 0.178306707698, average = 0.176486913281

Time = 5s

DILUPBiCGStab:  Solving for Ux, Initial residual = 0.0383531461243, Final residual = 5.89560302539e-11, No Iterations 3
DILUPBiCGStab:  Solving for Uy, Initial residual = 0.0334332990489, Final residual = 3.01276808981e-09, No Iterations 3
DILUPBiCGStab:  Solving for Uz, Initial residual = 0.0461296653962, Final residual = 7.48167646703e-10, No Iterations 3
DICPCG:  Solving for p, Initial residual = 0.00880740530538, Final residual = 5.93148662326e-05, No Iterations 100
DICPCG:  Solving for p, Initial residual = 7.61531514426e-05, Final residual = 5.59763673615e-07, No Iterations 3
DICPCG:  Solving for p, Initial residual = 5.59790096769e-07, Final residual = 9.04149228858e-09, No Iterations 7
time step continuity errors : sum local = 1.80370021505e-09, global = 2.51265930133e-10, cumulative = 4.3087339484e-10
ExecutionTime = 0.209985 s  ClockTime = 0 s



volFieldValue mindomain_scalar write:
    min() of p = 0.0442568666028 at location (7.96 0.00560560819347 0.0999999999998) in cell 2970

volFieldValue mindomain_vector write:
    minMag() of U = 0.122601778516 at location (0.2 0.0995649406574 0.1) in cell 89

volFieldValue maxdomain_scalar write:
    max() of p = 9.10877758252 at location (0.04 0.0995649406574 0.1) in cell 29

volFieldValue maxdomain_vector write:
    maxMag() of U = 1.13398229505 at location (0.12 0.0267991468551 0.1) in cell 33

yPlus yplus_stats write:
    patch top y+ : min = 0.160424070335, max = 0.162909946501, average = 0.160532342254

Time = 6s

DILUPBiCGStab:  Solving for Ux, Initial residual = 0.02973297281, Final residual = 4.80955860676e-11, No Iterations 3
DILUPBiCGStab:  Solving for Uy, Initial residual = 0.0226818291707, Final residual = 2.22381754079e-09, No Iterations 3
DILUPBiCGStab:  Solving for Uz, Initial residual = 0.0322916365378, Final residual = 5.51916645997e-10, No Iterations 3
DICPCG:  Solving for p, Initial residual = 0.0088787315497, Final residual = 5.54901846231e-05, No Iterations 100
DICPCG:  Solving for p, Initial residual = 5.7651278116e-05, Final residual = 3.2443025611e-07, No Iterations 3
DICPCG:  Solving for p, Initial residual = 3.24442786035e-07, Final residual = 9.24563843064e-09, No Iterations 19
time step continuity errors : sum local = 1.93169365513e-09, global = 2.40629560843e-10, cumulative = 6.71502955683e-10
ExecutionTime = 0.226068 s  ClockTime = 0 s



volFieldValue mindomain_scalar write:
    min() of p = 0.0428094663695 at location (7.96 0.00560560819347 0.0999999999998) in cell 2970

volFieldValue mindomain_vector write:
    minMag() of U = 0.105770806371 at location (0.2 0.0995649406574 0.1) in cell 89

volFieldValue maxdomain_scalar write:
    max() of p = 8.81091724624 at location (0.04 0.0995649406574 0.1) in cell 29

volFieldValue maxdomain_vector write:
    maxMag() of U = 1.1489721709 at location (0.36 0.0199789247164 0.1) in cell 122

yPlus yplus_stats write:
    patch top y+ : min = 0.149006102002, max = 0.152106263163, average = 0.149186720199

Time = 7s

DILUPBiCGStab:  Solving for Ux, Initial residual = 0.0244636694676, Final residual = 4.53985921078e-11, No Iterations 3
DILUPBiCGStab:  Solving for Uy, Initial residual = 0.0187406136775, Final residual = 2.0695133165e-09, No Iterations 3
DILUPBiCGStab:  Solving for Uz, Initial residual = 0.0253870447857, Final residual = 8.72880439056e-09, No Iterations 3
DICPCG:  Solving for p, Initial residual = 0.00856110182575, Final residual = 4.17704237534e-05, No Iterations 100
DICPCG:  Solving for p, Initial residual = 4.03315301552e-05, Final residual = 3.81137887072e-07, No Iterations 4
DICPCG:  Solving for p, Initial residual = 3.81148260844e-07, Final residual = 8.79566715451e-09, No Iterations 11
time step continuity errors : sum local = 1.93075085144e-09, global = -3.12863888231e-10, cumulative = 3.58639067452e-10
ExecutionTime = 0.243815 s  ClockTime = 0 s



volFieldValue mindomain_scalar write:
    min() of p = 0.0437936140708 at location (7.96 0.00560560819347 0.0999999999998) in cell 2970

volFieldValue mindomain_vector write:
    minMag() of U = 0.0938040337612 at location (0.2 0.0995649406574 0.1) in cell 89

volFieldValue maxdomain_scalar write:
    max() of p = 9.01249504927 at location (0.04 0.0995649406574 0.1) in cell 29

volFieldValue maxdomain_vector write:
    maxMag() of U = 1.16480431644 at location (0.36 0.0199789247164 0.1) in cell 122

yPlus yplus_stats write:
    patch top y+ : min = 0.140323982959, max = 0.144032994987, average = 0.140582165869

Time = 8s

DILUPBiCGStab:  Solving for Ux, Initial residual = 0.0208675941203, Final residual = 4.36687483989e-11, No Iterations 3
DILUPBiCGStab:  Solving for Uy, Initial residual = 0.0168191332002, Final residual = 1.95387862239e-09, No Iterations 3
DILUPBiCGStab:  Solving for Uz, Initial residual = 0.0212233170555, Final residual = 6.82695198974e-09, No Iterations 3
DICPCG:  Solving for p, Initial residual = 0.00797715963325, Final residual = 7.03564891012e-05, No Iterations 99
DICPCG:  Solving for p, Initial residual = 6.8870125921e-05, Final residual = 3.12103160127e-07, No Iterations 4
DICPCG:  Solving for p, Initial residual = 3.12118349595e-07, Final residual = 1.69416283299e-09, No Iterations 99
time step continuity errors : sum local = 3.77089246627e-10, global = 1.67494928201e-12, cumulative = 3.60314016734e-10
ExecutionTime = 0.265399 s  ClockTime = 0 s



volFieldValue mindomain_scalar write:
    min() of p = 0.0443293731216 at location (7.96 0.00560560819347 0.0999999999998) in cell 2970

volFieldValue mindomain_vector write:
    minMag() of U = 0.0847718183938 at location (0.2 0.0995649406574 0.1) in cell 89

volFieldValue maxdomain_scalar write:
    max() of p = 9.13184456641 at location (0.04 0.0995649406574 0.1) in cell 29

volFieldValue maxdomain_vector write:
    maxMag() of U = 1.18058079868 at location (0.36 0.0199789247164 0.1) in cell 122

yPlus yplus_stats write:
    patch top y+ : min = 0.133397255823, max = 0.137712333153, average = 0.133731790325

Time = 9s

DILUPBiCGStab:  Solving for Ux, Initial residual = 0.0182047224918, Final residual = 4.18599179348e-11, No Iterations 3
DILUPBiCGStab:  Solving for Uy, Initial residual = 0.0149683551934, Final residual = 2.81815721772e-09, No Iterations 3
DILUPBiCGStab:  Solving for Uz, Initial residual = 0.0183721338149, Final residual = 5.6635598526e-09, No Iterations 3
DICPCG:  Solving for p, Initial residual = 0.00745333107237, Final residual = 5.5382283251e-05, No Iterations 96
DICPCG:  Solving for p, Initial residual = 5.54633062269e-05, Final residual = 4.61016921127e-07, No Iterations 10
DICPCG:  Solving for p, Initial residual = 4.61035486471e-07, Final residual = 4.50141716287e-09, No Iterations 98
time step continuity errors : sum local = 9.97145999176e-10, global = 1.93323446084e-12, cumulative = 3.62247251194e-10
ExecutionTime = 0.291135 s  ClockTime = 1 s



volFieldValue mindomain_scalar write:
    min() of p = 0.0440827424143 at location (7.96 0.00560560819347 0.0999999999998) in cell 2970

volFieldValue mindomain_vector write:
    minMag() of U = 0.0776465581005 at location (0.2 0.0995649406574 0.1) in cell 89

volFieldValue maxdomain_scalar write:
    max() of p = 9.09565482117 at location (0.04 0.0995649406574 0.1) in cell 29

volFieldValue maxdomain_vector write:
    maxMag() of U = 1.19578925014 at location (0.36 0.0199789247164 0.1) in cell 122

yPlus yplus_stats write:
    patch top y+ : min = 0.127668057534, max = 0.132590881358, average = 0.128076827589

Time = 10s

DILUPBiCGStab:  Solving for Ux, Initial residual = 0.0161334384148, Final residual = 4.00505868739e-11, No Iterations 3
DILUPBiCGStab:  Solving for Uy, Initial residual = 0.0130589607815, Final residual = 2.36674760793e-09, No Iterations 3
DILUPBiCGStab:  Solving for Uz, Initial residual = 0.0162054179913, Final residual = 4.92961820437e-09, No Iterations 3
DICPCG:  Solving for p, Initial residual = 0.0070540198687, Final residual = 6.10938213629e-05, No Iterations 97
DICPCG:  Solving for p, Initial residual = 6.15412246918e-05, Final residual = 5.69061888405e-07, No Iterations 6
DICPCG:  Solving for p, Initial residual = 5.69080393793e-07, Final residual = 2.2946739049e-09, No Iterations 99
time step continuity errors : sum local = 5.063416083e-10, global = -1.21487900803e-12, cumulative = 3.61032372186e-10
ExecutionTime = 0.31152 s  ClockTime = 1 s



volFieldValue mindomain_scalar write:
    min() of p = 0.0436400775534 at location (7.96 0.00560560819347 0.0999999999998) in cell 2970

volFieldValue mindomain_vector write:
    minMag() of U = 0.0718369822186 at location (0.2 0.0995649406574 0.1) in cell 89

volFieldValue maxdomain_scalar write:
    max() of p = 9.01845822911 at location (0.04 0.0995649406574 0.1) in cell 29

volFieldValue maxdomain_vector write:
    maxMag() of U = 1.21031688354 at location (0.36 0.0199789247164 0.1) in cell 122

yPlus yplus_stats write:
    patch top y+ : min = 0.122799100608, max = 0.128334426123, average = 0.123282065158

Time = 11s

DILUPBiCGStab:  Solving for Ux, Initial residual = 0.0144624382114, Final residual = 3.85928134425e-11, No Iterations 3
DILUPBiCGStab:  Solving for Uy, Initial residual = 0.0113826999945, Final residual = 1.69532069838e-09, No Iterations 3
DILUPBiCGStab:  Solving for Uz, Initial residual = 0.0145228795174, Final residual = 4.24959818398e-09, No Iterations 3
DICPCG:  Solving for p, Initial residual = 0.00669633557832, Final residual = 5.45015742611e-05, No Iterations 98
DICPCG:  Solving for p, Initial residual = 5.45718717332e-05, Final residual = 5.07674307069e-07, No Iterations 21
DICPCG:  Solving for p, Initial residual = 5.07693147894e-07, Final residual = 3.15821056042e-09, No Iterations 99
time step continuity errors : sum local = 6.99456550685e-10, global = 1.25778749699e-13, cumulative = 3.61158150936e-10
ExecutionTime = 0.329861 s  ClockTime = 1 s



volFieldValue mindomain_scalar write:
    min() of p = 0.04341157038 at location (7.96 0.00560560819347 0.0999999999998) in cell 2970

volFieldValue mindomain_vector write:
    minMag() of U = 0.0669807454415 at location (0.2 0.0995649406574 0.1) in cell 89

volFieldValue maxdomain_scalar write:
    max() of p = 8.98264516744 at location (0.04 0.0995649406574 0.1) in cell 29

volFieldValue maxdomain_vector write:
    maxMag() of U = 1.22431711404 at location (0.36 0.0199789247164 0.1) in cell 122

yPlus yplus_stats write:
    patch top y+ : min = 0.118575819371, max = 0.124729531049, average = 0.119135090503

Time = 12s

DILUPBiCGStab:  Solving for Ux, Initial residual = 0.0131085341631, Final residual = 3.74359833515e-11, No Iterations 3
DILUPBiCGStab:  Solving for Uy, Initial residual = 0.0100707696408, Final residual = 1.57049652548e-09, No Iterations 3
DILUPBiCGStab:  Solving for Uz, Initial residual = 0.0131715643786, Final residual = 3.6551628367e-09, No Iterations 3
DICPCG:  Solving for p, Initial residual = 0.00630349712285, Final residual = 4.08600397492e-05, No Iterations 4
DICPCG:  Solving for p, Initial residual = 4.06471255963e-05, Final residual = 8.71346941371e-08, No Iterations 100
DICPCG:  Solving for p, Initial residual = 8.70618037427e-08, Final residual = 5.42197046246e-10, No Iterations 3
time step continuity errors : sum local = 1.21183928406e-10, global = -7.22275379312e-13, cumulative = 3.60435875557e-10
ExecutionTime = 0.342072 s  ClockTime = 1 s



volFieldValue mindomain_scalar write:
    min() of p = 0.0434443578281 at location (7.96 0.00560560819347 0.0999999999998) in cell 2970

volFieldValue mindomain_vector write:
    minMag() of U = 0.0628429082811 at location (0.2 0.0995649406574 0.1) in cell 89

volFieldValue maxdomain_scalar write:
    max() of p = 8.99880821512 at location (0.04 0.0995649406574 0.1) in cell 29

volFieldValue maxdomain_vector write:
    maxMag() of U = 1.23798028149 at location (0.36 0.0199789247164 0.1) in cell 122

yPlus yplus_stats write:
    patch top y+ : min = 0.114854835398, max = 0.12163265231, average = 0.11549346768

Time = 13s

DILUPBiCGStab:  Solving for Ux, Initial residual = 0.0119626022825, Final residual = 3.64929355036e-11, No Iterations 3
DILUPBiCGStab:  Solving for Uy, Initial residual = 0.00905649960329, Final residual = 1.76546045591e-09, No Iterations 3
DILUPBiCGStab:  Solving for Uz, Initial residual = 0.012075519852, Final residual = 3.21688170018e-09, No Iterations 3
DICPCG:  Solving for p, Initial residual = 0.00592024166611, Final residual = 2.32541170933e-05, No Iterations 100
DICPCG:  Solving for p, Initial residual = 2.30179588693e-05, Final residual = 1.60581114414e-07, No Iterations 4
DICPCG:  Solving for p, Initial residual = 1.60583084766e-07, Final residual = 9.60917675195e-09, No Iterations 38
time step continuity errors : sum local = 2.17152400522e-09, global = -2.8582527811e-10, cumulative = 7.46105974468e-11
ExecutionTime = 0.360259 s  ClockTime = 1 s



volFieldValue mindomain_scalar write:
    min() of p = 0.0436281562697 at location (7.96 0.00560560819347 0.0999999999998) in cell 2970

volFieldValue mindomain_vector write:
    minMag() of U = 0.0592632261908 at location (0.2 0.0995649406574 0.1) in cell 89

volFieldValue maxdomain_scalar write:
    max() of p = 9.0455322415 at location (0.04 0.0995649406574 0.1) in cell 29

volFieldValue maxdomain_vector write:
    maxMag() of U = 1.25142162601 at location (0.36 0.0199789247164 0.1) in cell 122

yPlus yplus_stats write:
    patch top y+ : min = 0.111535672733, max = 0.118942578576, average = 0.112256606698

Time = 14s

DILUPBiCGStab:  Solving for Ux, Initial residual = 0.0109850045947, Final residual = 3.56305904656e-11, No Iterations 3
DILUPBiCGStab:  Solving for Uy, Initial residual = 0.00822965437256, Final residual = 1.99109853032e-09, No Iterations 3
DILUPBiCGStab:  Solving for Uz, Initial residual = 0.0111574808867, Final residual = 2.93724242395e-09, No Iterations 3
DICPCG:  Solving for p, Initial residual = 0.00556376921525, Final residual = 2.2543709146e-05, No Iterations 100
DICPCG:  Solving for p, Initial residual = 2.22843463549e-05, Final residual = 1.24745160073e-07, No Iterations 4
DICPCG:  Solving for p, Initial residual = 1.24746428126e-07, Final residual = 9.58671843654e-09, No Iterations 30
time step continuity errors : sum local = 2.19037024247e-09, global = -3.05342974301e-10, cumulative = -2.30732376854e-10
ExecutionTime = 0.380026 s  ClockTime = 1 s



volFieldValue mindomain_scalar write:
    min() of p = 0.0438703263646 at location (7.96 0.00560560819347 0.0999999999998) in cell 2970

volFieldValue mindomain_vector write:
    minMag() of U = 0.0561277305649 at location (0.2 0.0995649406574 0.1) in cell 89

volFieldValue maxdomain_scalar write:
    max() of p = 9.10429357516 at location (0.04 0.0995649406574 0.1) in cell 29

volFieldValue maxdomain_vector write:
    maxMag() of U = 1.26494238711 at location (0.52 0.0199789247164 0.1) in cell 182

yPlus yplus_stats write:
    patch top y+ : min = 0.108545016089, max = 0.116585093493, average = 0.109350653097

Time = 15s

DILUPBiCGStab:  Solving for Ux, Initial residual = 0.010149648601, Final residual = 3.48386104687e-11, No Iterations 3
DILUPBiCGStab:  Solving for Uy, Initial residual = 0.00752123163583, Final residual = 2.14964861513e-09, No Iterations 3
DILUPBiCGStab:  Solving for Uz, Initial residual = 0.010384247516, Final residual = 2.65828824702e-09, No Iterations 3
DICPCG:  Solving for p, Initial residual = 0.00522859809805, Final residual = 2.16574966282e-05, No Iterations 100
DICPCG:  Solving for p, Initial residual = 2.13986560319e-05, Final residual = 1.01956413875e-07, No Iterations 4
DICPCG:  Solving for p, Initial residual = 1.01957328504e-07, Final residual = 8.68054442835e-09, No Iterations 30
time step continuity errors : sum local = 2.00509915471e-09, global = -3.09498621162e-10, cumulative = -5.40230998016e-10
ExecutionTime = 0.397004 s  ClockTime = 1 s



volFieldValue mindomain_scalar write:
    min() of p = 0.0441382867109 at location (7.96 0.00560560819347 0.0999999999998) in cell 2970

volFieldValue mindomain_vector write:
    minMag() of U = 0.0533527197575 at location (0.2 0.0995649406574 0.1) in cell 89

volFieldValue maxdomain_scalar write:
    max() of p = 9.16834481708 at location (0.04 0.0995649406574 0.1) in cell 29

volFieldValue maxdomain_vector write:
    maxMag() of U = 1.27849354693 at location (0.52 0.0199789247164 0.1) in cell 182

yPlus yplus_stats write:
    patch top y+ : min = 0.105827717108, max = 0.114504115664, average = 0.106719934445

Time = 16s

DILUPBiCGStab:  Solving for Ux, Initial residual = 0.00941512006452, Final residual = 3.41022926201e-11, No Iterations 3
DILUPBiCGStab:  Solving for Uy, Initial residual = 0.00690033058261, Final residual = 2.04158710093e-09, No Iterations 3
DILUPBiCGStab:  Solving for Uz, Initial residual = 0.00971522086096, Final residual = 2.38753081094e-09, No Iterations 3
DICPCG:  Solving for p, Initial residual = 0.00491796413757, Final residual = 2.14427130706e-05, No Iterations 100
DICPCG:  Solving for p, Initial residual = 2.11772247983e-05, Final residual = 8.85456425637e-08, No Iterations 4
DICPCG:  Solving for p, Initial residual = 8.85463988424e-08, Final residual = 9.64866628031e-09, No Iterations 28
time step continuity errors : sum local = 2.25357618091e-09, global = -2.56042346216e-10, cumulative = -7.96273344232e-10
ExecutionTime = 0.415415 s  ClockTime = 1 s



volFieldValue mindomain_scalar write:
    min() of p = 0.0444324427158 at location (7.96 0.00560560819347 0.0999999999998) in cell 2970

volFieldValue mindomain_vector write:
    minMag() of U = 0.0508751786117 at location (0.2 0.0995649406574 0.1) in cell 89

volFieldValue maxdomain_scalar write:
    max() of p = 9.23759443715 at location (0.04 0.0995649406574 0.1) in cell 29

volFieldValue maxdomain_vector write:
    maxMag() of U = 1.29188296246 at location (0.52 0.0199789247164 0.1) in cell 182

yPlus yplus_stats write:
    patch top y+ : min = 0.103341347355, max = 0.112656267946, average = 0.10432163168

Time = 17s

DILUPBiCGStab:  Solving for Ux, Initial residual = 0.00875978961777, Final residual = 3.33607096756e-11, No Iterations 3
DILUPBiCGStab:  Solving for Uy, Initial residual = 0.00635474485467, Final residual = 1.85507025242e-09, No Iterations 3
DILUPBiCGStab:  Solving for Uz, Initial residual = 0.00914498998376, Final residual = 2.13529148453e-09, No Iterations 3
DICPCG:  Solving for p, Initial residual = 0.0046279842239, Final residual = 2.15679585e-05, No Iterations 100
DICPCG:  Solving for p, Initial residual = 2.12901319422e-05, Final residual = 8.22924317749e-08, No Iterations 4
DICPCG:  Solving for p, Initial residual = 8.22932720238e-08, Final residual = 9.68797559715e-09, No Iterations 24
time step continuity errors : sum local = 2.28847093176e-09, global = -2.96759697454e-10, cumulative = -1.09303304169e-09
ExecutionTime = 0.43431 s  ClockTime = 1 s



volFieldValue mindomain_scalar write:
    min() of p = 0.0447568331491 at location (7.96 0.00560560819347 0.0999999999998) in cell 2970

volFieldValue mindomain_vector write:
    minMag() of U = 0.0486466786221 at location (0.2 0.0995649406574 0.1) in cell 89

volFieldValue maxdomain_scalar write:
    max() of p = 9.31280082924 at location (0.04 0.0995649406574 0.1) in cell 29

volFieldValue maxdomain_vector write:
    maxMag() of U = 1.30516421338 at location (0.44 0.0199789247164 0.1) in cell 152

yPlus yplus_stats write:
    patch top y+ : min = 0.101052658402, max = 0.111007332258, average = 0.102122184312

Time = 18s

DILUPBiCGStab:  Solving for Ux, Initial residual = 0.00818163596201, Final residual = 3.25893847064e-11, No Iterations 3
DILUPBiCGStab:  Solving for Uy, Initial residual = 0.00587630502037, Final residual = 1.75811191488e-09, No Iterations 3
DILUPBiCGStab:  Solving for Uz, Initial residual = 0.00862999013795, Final residual = 1.93016795534e-09, No Iterations 3
DICPCG:  Solving for p, Initial residual = 0.00435351311904, Final residual = 2.16915571927e-05, No Iterations 100
DICPCG:  Solving for p, Initial residual = 2.14026208695e-05, Final residual = 7.97547449163e-08, No Iterations 4
DICPCG:  Solving for p, Initial residual = 7.97555112824e-08, Final residual = 9.98026792771e-09, No Iterations 22
time step continuity errors : sum local = 2.38477346482e-09, global = -2.73037962531e-10, cumulative = -1.36607100422e-09
ExecutionTime = 0.451168 s  ClockTime = 1 s



volFieldValue mindomain_scalar write:
    min() of p = 0.0451091356025 at location (7.96 0.00560560819347 0.0999999999998) in cell 2970

volFieldValue mindomain_vector write:
    minMag() of U = 0.0466293168407 at location (0.2 0.0995649406574 0.1) in cell 89

volFieldValue maxdomain_scalar write:
    max() of p = 9.39350940863 at location (0.04 0.0995649406574 0.1) in cell 29

volFieldValue maxdomain_vector write:
    maxMag() of U = 1.31829997801 at location (0.44 0.0199789247164 0.1) in cell 152

yPlus yplus_stats write:
    patch top y+ : min = 0.0989351627256, max = 0.109529832783, average = 0.10009479818

Time = 19s

DILUPBiCGStab:  Solving for Ux, Initial residual = 0.00766649899645, Final residual = 3.17663987743e-11, No Iterations 3
DILUPBiCGStab:  Solving for Uy, Initial residual = 0.0054553009781, Final residual = 1.70787975036e-09, No Iterations 3
DILUPBiCGStab:  Solving for Uz, Initial residual = 0.00818391147455, Final residual = 1.81376244984e-09, No Iterations 3
DICPCG:  Solving for p, Initial residual = 0.00409414242812, Final residual = 2.1714433697e-05, No Iterations 100
DICPCG:  Solving for p, Initial residual = 2.14193231396e-05, Final residual = 7.85216057321e-08, No Iterations 4
DICPCG:  Solving for p, Initial residual = 7.85222523357e-08, Final residual = 9.6960054099e-09, No Iterations 21
time step continuity errors : sum local = 2.34364898069e-09, global = -2.6571431425e-10, cumulative = -1.63178531847e-09
ExecutionTime = 0.469519 s  ClockTime = 1 s



volFieldValue mindomain_scalar write:
    min() of p = 0.0454830094182 at location (7.96 0.00560560819347 0.0999999999998) in cell 2970

volFieldValue mindomain_vector write:
    minMag() of U = 0.0447929409083 at location (0.2 0.0995649406574 0.1) in cell 89

volFieldValue maxdomain_scalar write:
    max() of p = 9.47846475727 at location (0.04 0.0995649406574 0.1) in cell 29

volFieldValue maxdomain_vector write:
    maxMag() of U = 1.33126554195 at location (0.44 0.0199789247164 0.1) in cell 152

yPlus yplus_stats write:
    patch top y+ : min = 0.0969674410207, max = 0.108201352478, average = 0.0982177223447

Time = 20s

DILUPBiCGStab:  Solving for Ux, Initial residual = 0.00720046412051, Final residual = 3.12741927373e-11, No Iterations 3
DILUPBiCGStab:  Solving for Uy, Initial residual = 0.00508034431872, Final residual = 1.67785200413e-09, No Iterations 3
DILUPBiCGStab:  Solving for Uz, Initial residual = 0.00778436832258, Final residual = 1.7363893104e-09, No Iterations 3
DICPCG:  Solving for p, Initial residual = 0.00384915575395, Final residual = 2.16841824757e-05, No Iterations 100
DICPCG:  Solving for p, Initial residual = 2.13875317513e-05, Final residual = 7.74303517793e-08, No Iterations 4
DICPCG:  Solving for p, Initial residual = 7.74309214368e-08, Final residual = 9.30560957461e-09, No Iterations 21
time step continuity errors : sum local = 2.2750628673e-09, global = -2.51529739503e-10, cumulative = -1.88331505797e-09
ExecutionTime = 0.486787 s  ClockTime = 1 s



volFieldValue mindomain_scalar write:
    min() of p = 0.0458722478111 at location (7.96 0.00560560819347 0.0999999999998) in cell 2970

volFieldValue mindomain_vector write:
    minMag() of U = 0.0431132190378 at location (0.2 0.0995649406574 0.1) in cell 89

volFieldValue maxdomain_scalar write:
    max() of p = 9.56642057751 at location (0.04 0.0995649406574 0.1) in cell 29

volFieldValue maxdomain_vector write:
    maxMag() of U = 1.34432366512 at location (0.52 0.0127006636098 0.0999999999999) in cell 181

yPlus yplus_stats write:
    patch top y+ : min = 0.0951319439547, max = 0.107003344475, average = 0.0964730538666

Time = 21s

DILUPBiCGStab:  Solving for Ux, Initial residual = 0.00677416086587, Final residual = 3.13850927129e-11, No Iterations 3
DILUPBiCGStab:  Solving for Uy, Initial residual = 0.00474355221755, Final residual = 1.65360988614e-09, No Iterations 3
DILUPBiCGStab:  Solving for Uz, Initial residual = 0.00742091779992, Final residual = 1.6963586883e-09, No Iterations 3
DICPCG:  Solving for p, Initial residual = 0.00361553006951, Final residual = 2.1623826361e-05, No Iterations 100
DICPCG:  Solving for p, Initial residual = 2.13285158593e-05, Final residual = 7.58663753155e-08, No Iterations 4
DICPCG:  Solving for p, Initial residual = 7.58670795759e-08, Final residual = 9.81117944087e-09, No Iterations 19
time step continuity errors : sum local = 2.42572926959e-09, global = -3.11768419551e-10, cumulative = -2.19508347752e-09
ExecutionTime = 0.506292 s  ClockTime = 1 s



volFieldValue mindomain_scalar write:
    min() of p = 0.0462724124448 at location (7.96 0.00560560819347 0.0999999999998) in cell 2970

volFieldValue mindomain_vector write:
    minMag() of U = 0.0415702701046 at location (0.2 0.0995649406574 0.1) in cell 89

volFieldValue maxdomain_scalar write:
    max() of p = 9.65647347047 at location (0.04 0.0995649406574 0.1) in cell 29

volFieldValue maxdomain_vector write:
    maxMag() of U = 1.35762678 at location (0.52 0.0127006636098 0.0999999999999) in cell 181

yPlus yplus_stats write:
    patch top y+ : min = 0.0934141291035, max = 0.105920278504, average = 0.0948458881966

Time = 22s

DILUPBiCGStab:  Solving for Ux, Initial residual = 0.00638206897848, Final residual = 3.14176112226e-11, No Iterations 3
DILUPBiCGStab:  Solving for Uy, Initial residual = 0.00443953033803, Final residual = 1.62851573895e-09, No Iterations 3
DILUPBiCGStab:  Solving for Uz, Initial residual = 0.00709224778703, Final residual = 1.66014615546e-09, No Iterations 3
DICPCG:  Solving for p, Initial residual = 0.00339401925245, Final residual = 2.14884333141e-05, No Iterations 100
DICPCG:  Solving for p, Initial residual = 2.1197211268e-05, Final residual = 7.37182770336e-08, No Iterations 4
DICPCG:  Solving for p, Initial residual = 7.37189391199e-08, Final residual = 9.63727248783e-09, No Iterations 19
time step continuity errors : sum local = 2.40908595547e-09, global = -3.00954333891e-10, cumulative = -2.49603781141e-09
ExecutionTime = 0.520283 s  ClockTime = 1 s



volFieldValue mindomain_scalar write:
    min() of p = 0.0466804972218 at location (7.96 0.00560560819347 0.0999999999998) in cell 2970

volFieldValue mindomain_vector write:
    minMag() of U = 0.0401476697263 at location (0.2 0.0995649406574 0.1) in cell 89

volFieldValue maxdomain_scalar write:
    max() of p = 9.74800566339 at location (0.04 0.0995649406574 0.1) in cell 29

volFieldValue maxdomain_vector write:
    maxMag() of U = 1.3707974926 at location (0.52 0.0127006636098 0.0999999999999) in cell 181

yPlus yplus_stats write:
    patch top y+ : min = 0.0918018255262, max = 0.104939014366, average = 0.0933236935829

Time = 23s

DILUPBiCGStab:  Solving for Ux, Initial residual = 0.00602969137763, Final residual = 3.13670165307e-11, No Iterations 3
DILUPBiCGStab:  Solving for Uy, Initial residual = 0.00416323027529, Final residual = 1.6001271008e-09, No Iterations 3
DILUPBiCGStab:  Solving for Uz, Initial residual = 0.00679274145114, Final residual = 1.60186999333e-09, No Iterations 3
DICPCG:  Solving for p, Initial residual = 0.00318414411434, Final residual = 2.11968019915e-05, No Iterations 100
DICPCG:  Solving for p, Initial residual = 2.09127638316e-05, Final residual = 7.11331164731e-08, No Iterations 4
DICPCG:  Solving for p, Initial residual = 7.11337676322e-08, Final residual = 9.92111072695e-09, No Iterations 16
time step continuity errors : sum local = 2.50687829376e-09, global = -3.02556483276e-10, cumulative = -2.79859429469e-09
ExecutionTime = 0.535483 s  ClockTime = 1 s



volFieldValue mindomain_scalar write:
    min() of p = 0.0470941511317 at location (7.96 0.00560560819347 0.0999999999998) in cell 2970

volFieldValue mindomain_vector write:
    minMag() of U = 0.0388317143963 at location (0.2 0.0995649406574 0.1) in cell 89

volFieldValue maxdomain_scalar write:
    max() of p = 9.8405354152 at location (0.04 0.0995649406574 0.1) in cell 29

volFieldValue maxdomain_vector write:
    maxMag() of U = 1.3838293396 at location (0.52 0.0127006636098 0.0999999999999) in cell 181

yPlus yplus_stats write:
    patch top y+ : min = 0.0902847559566, max = 0.104048331787, average = 0.0918958372988

Time = 24s

DILUPBiCGStab:  Solving for Ux, Initial residual = 0.00570593291439, Final residual = 3.13201812305e-11, No Iterations 3
DILUPBiCGStab:  Solving for Uy, Initial residual = 0.00391099474112, Final residual = 1.56789490308e-09, No Iterations 3
DILUPBiCGStab:  Solving for Uz, Initial residual = 0.00652308792794, Final residual = 1.5362516472e-09, No Iterations 3
DICPCG:  Solving for p, Initial residual = 0.00298380497981, Final residual = 2.07496620868e-05, No Iterations 100
DICPCG:  Solving for p, Initial residual = 2.04755752847e-05, Final residual = 6.81701290845e-08, No Iterations 4
DICPCG:  Solving for p, Initial residual = 6.8170695587e-08, Final residual = 9.21151639327e-09, No Iterations 16
time step continuity errors : sum local = 2.35218595605e-09, global = -2.84949758669e-10, cumulative = -3.08354405336e-09
ExecutionTime = 0.557244 s  ClockTime = 1 s



volFieldValue mindomain_scalar write:
    min() of p = 0.0475112716345 at location (7.96 0.00560560819347 0.0999999999998) in cell 2970

volFieldValue mindomain_vector write:
    minMag() of U = 0.0376108669819 at location (0.2 0.0995649406574 0.1) in cell 89

volFieldValue maxdomain_scalar write:
    max() of p = 9.93363305939 at location (0.04 0.0995649406574 0.1) in cell 29

volFieldValue maxdomain_vector write:
    maxMag() of U = 1.39671481702 at location (0.52 0.0127006636098 0.0999999999999) in cell 181

yPlus yplus_stats write:
    patch top y+ : min = 0.0888541708089, max = 0.103238571242, average = 0.0905532215059

Time = 25s

DILUPBiCGStab:  Solving for Ux, Initial residual = 0.00540665676749, Final residual = 3.12566936484e-11, No Iterations 3
DILUPBiCGStab:  Solving for Uy, Initial residual = 0.00368030751689, Final residual = 1.53187464275e-09, No Iterations 3
DILUPBiCGStab:  Solving for Uz, Initial residual = 0.00627275085684, Final residual = 1.46304107311e-09, No Iterations 3
DICPCG:  Solving for p, Initial residual = 0.00279343009765, Final residual = 2.01944413479e-05, No Iterations 100
DICPCG:  Solving for p, Initial residual = 1.99324570387e-05, Final residual = 6.49444592305e-08, No Iterations 4
DICPCG:  Solving for p, Initial residual = 6.49449879825e-08, Final residual = 8.48866767696e-09, No Iterations 16
time step continuity errors : sum local = 2.18987645647e-09, global = -2.67239593598e-10, cumulative = -3.35078364696e-09
ExecutionTime = 0.581387 s  ClockTime = 1 s



volFieldValue mindomain_scalar write:
    min() of p = 0.0479299309783 at location (7.96 0.00560560819347 0.0999999999998) in cell 2970

volFieldValue mindomain_vector write:
    minMag() of U = 0.0364753329142 at location (0.2 0.0995649406574 0.1) in cell 89

volFieldValue maxdomain_scalar write:
    max() of p = 10.0269057307 at location (0.04 0.0995649406574 0.1) in cell 29

volFieldValue maxdomain_vector write:
    maxMag() of U = 1.40955014969 at location (0.6 0.0127006636098 0.0999999999999) in cell 211

yPlus yplus_stats write:
    patch top y+ : min = 0.0875025638744, max = 0.102501355888, average = 0.089288001306

Time = 26s

DILUPBiCGStab:  Solving for Ux, Initial residual = 0.00512921447383, Final residual = 3.11169416296e-11, No Iterations 3
DILUPBiCGStab:  Solving for Uy, Initial residual = 0.00346814784004, Final residual = 1.49224199003e-09, No Iterations 3
DILUPBiCGStab:  Solving for Uz, Initial residual = 0.00603521308161, Final residual = 1.38775349664e-09, No Iterations 3
DICPCG:  Solving for p, Initial residual = 0.00261412518762, Final residual = 1.95528885616e-05, No Iterations 100
DICPCG:  Solving for p, Initial residual = 1.93044352126e-05, Final residual = 6.1517741675e-08, No Iterations 4
DICPCG:  Solving for p, Initial residual = 6.15182677609e-08, Final residual = 9.94856810038e-09, No Iterations 12
time step continuity errors : sum local = 2.59211960971e-09, global = -2.90578971057e-10, cumulative = -3.64136261801e-09
ExecutionTime = 0.597282 s  ClockTime = 1 s



volFieldValue mindomain_scalar write:
    min() of p = 0.0483483632718 at location (7.96 0.0995649406574 0.1) in cell 2999

volFieldValue mindomain_vector write:
    minMag() of U = 0.0354167327116 at location (0.2 0.0995649406574 0.1) in cell 89

volFieldValue maxdomain_scalar write:
    max() of p = 10.1200066406 at location (0.04 0.0995649406574 0.1) in cell 29

volFieldValue maxdomain_vector write:
    maxMag() of U = 1.42232205211 at location (0.6 0.0127006636098 0.0999999999999) in cell 211

yPlus yplus_stats write:
    patch top y+ : min = 0.0862234494057, max = 0.101829373853, average = 0.0880933647228

Time = 27s

DILUPBiCGStab:  Solving for Ux, Initial residual = 0.0048700331845, Final residual = 3.09005912409e-11, No Iterations 3
DILUPBiCGStab:  Solving for Uy, Initial residual = 0.00327236657955, Final residual = 1.44903610028e-09, No Iterations 3
DILUPBiCGStab:  Solving for Uz, Initial residual = 0.0058200024323, Final residual = 1.31320099244e-09, No Iterations 3
DICPCG:  Solving for p, Initial residual = 0.00244414193319, Final residual = 1.8837361716e-05, No Iterations 100
DICPCG:  Solving for p, Initial residual = 1.86034210699e-05, Final residual = 5.80350463605e-08, No Iterations 4
DICPCG:  Solving for p, Initial residual = 5.80354748449e-08, Final residual = 9.8560761121e-09, No Iterations 7
time step continuity errors : sum local = 2.59286638533e-09, global = -3.9491554708e-10, cumulative = -4.03627816509e-09
ExecutionTime = 0.612157 s  ClockTime = 1 s



volFieldValue mindomain_scalar write:
    min() of p = 0.0487650939169 at location (7.96 0.0995649406574 0.1) in cell 2999

volFieldValue mindomain_vector write:
    minMag() of U = 0.0344278464572 at location (0.2 0.0995649406574 0.1) in cell 89

volFieldValue maxdomain_scalar write:
    max() of p = 10.212638729 at location (0.04 0.0995649406574 0.1) in cell 29

volFieldValue maxdomain_vector write:
    maxMag() of U = 1.4349512706 at location (0.6 0.0127006636098 0.0999999999999) in cell 211

yPlus yplus_stats write:
    patch top y+ : min = 0.085011185934, max = 0.101216205911, average = 0.0869633591114

Time = 28s

DILUPBiCGStab:  Solving for Ux, Initial residual = 0.00462717240482, Final residual = 3.06124437304e-11, No Iterations 3
DILUPBiCGStab:  Solving for Uy, Initial residual = 0.00309150199887, Final residual = 1.40253700456e-09, No Iterations 3
DILUPBiCGStab:  Solving for Uz, Initial residual = 0.00561746360731, Final residual = 1.23916725446e-09, No Iterations 3
DICPCG:  Solving for p, Initial residual = 0.00228305697058, Final residual = 1.80664978551e-05, No Iterations 100
DICPCG:  Solving for p, Initial residual = 1.78476712212e-05, Final residual = 5.45870681608e-08, No Iterations 4
DICPCG:  Solving for p, Initial residual = 5.45874567276e-08, Final residual = 9.50408995123e-09, No Iterations 3
time step continuity errors : sum local = 2.52364333256e-09, global = -6.93951896828e-10, cumulative = -4.73023006192e-09
ExecutionTime = 0.631897 s  ClockTime = 1 s



volFieldValue mindomain_scalar write:
    min() of p = 0.0491789784181 at location (7.96 0.0995649406574 0.1) in cell 2999

volFieldValue mindomain_vector write:
    minMag() of U = 0.0335024120646 at location (0.2 0.0995649406574 0.1) in cell 89

volFieldValue maxdomain_scalar write:
    max() of p = 10.3045501189 at location (0.04 0.0995649406574 0.1) in cell 29

volFieldValue maxdomain_vector write:
    maxMag() of U = 1.44742921848 at location (0.6 0.0127006636098 0.0999999999999) in cell 211

yPlus yplus_stats write:
    patch top y+ : min = 0.0838608353268, max = 0.10065618759, average = 0.0858927524972

Time = 29s

DILUPBiCGStab:  Solving for Ux, Initial residual = 0.00440091348394, Final residual = 3.02629929255e-11, No Iterations 3
DILUPBiCGStab:  Solving for Uy, Initial residual = 0.00292369005964, Final residual = 1.35303393769e-09, No Iterations 3
DILUPBiCGStab:  Solving for Uz, Initial residual = 0.00543038588223, Final residual = 1.17269211787e-09, No Iterations 3
DICPCG:  Solving for p, Initial residual = 0.00213062298174, Final residual = 1.72591682844e-05, No Iterations 100
DICPCG:  Solving for p, Initial residual = 1.70556977799e-05, Final residual = 5.11939412961e-08, No Iterations 4
DICPCG:  Solving for p, Initial residual = 5.11943202748e-08, Final residual = 8.61995401166e-09, No Iterations 3
time step continuity errors : sum local = 2.30964155421e-09, global = -6.40540742733e-10, cumulative = -5.37077080465e-09
ExecutionTime = 0.652822 s  ClockTime = 1 s



volFieldValue mindomain_scalar write:
    min() of p = 0.0495889869243 at location (7.96 0.0995649406574 0.1) in cell 2999

volFieldValue mindomain_vector write:
    minMag() of U = 0.0326349644682 at location (0.2 0.0995649406574 0.1) in cell 89

volFieldValue maxdomain_scalar write:
    max() of p = 10.395526661 at location (0.04 0.0995649406574 0.1) in cell 29

volFieldValue maxdomain_vector write:
    maxMag() of U = 1.45974714405 at location (0.6 0.0127006636098 0.0999999999999) in cell 211

yPlus yplus_stats write:
    patch top y+ : min = 0.082768048997, max = 0.100144297652, average = 0.0848769216059

Time = 30s

DILUPBiCGStab:  Solving for Ux, Initial residual = 0.00419288701155, Final residual = 2.98621200866e-11, No Iterations 3
DILUPBiCGStab:  Solving for Uy, Initial residual = 0.0027678086927, Final residual = 1.30104086861e-09, No Iterations 3
DILUPBiCGStab:  Solving for Uz, Initial residual = 0.00525298477106, Final residual = 1.10827801383e-09, No Iterations 3
DICPCG:  Solving for p, Initial residual = 0.00198691588525, Final residual = 1.64220088813e-05, No Iterations 100
DICPCG:  Solving for p, Initial residual = 1.62338437742e-05, Final residual = 4.78675763099e-08, No Iterations 4
DICPCG:  Solving for p, Initial residual = 4.78679411438e-08, Final residual = 7.79148725368e-09, No Iterations 3
time step continuity errors : sum local = 2.10586319493e-09, global = -5.88575164527e-10, cumulative = -5.95934596918e-09
ExecutionTime = 0.672268 s  ClockTime = 1 s



volFieldValue mindomain_scalar write:
    min() of p = 0.0499942034765 at location (7.96 0.0995649406574 0.1) in cell 2999

volFieldValue mindomain_vector write:
    minMag() of U = 0.0318207062578 at location (0.2 0.0995649406574 0.1) in cell 89

volFieldValue maxdomain_scalar write:
    max() of p = 10.485385107 at location (0.04 0.0995649406574 0.1) in cell 29

volFieldValue maxdomain_vector write:
    maxMag() of U = 1.47190841513 at location (0.68 0.0127006636098 0.0999999999999) in cell 241

yPlus yplus_stats write:
    patch top y+ : min = 0.0817289752009, max = 0.0996760670442, average = 0.0839117606403

Time = 31s

DILUPBiCGStab:  Solving for Ux, Initial residual = 0.00399780992705, Final residual = 2.96814007108e-11, No Iterations 3
DILUPBiCGStab:  Solving for Uy, Initial residual = 0.00262285421465, Final residual = 1.2471899391e-09, No Iterations 3
DILUPBiCGStab:  Solving for Uz, Initial residual = 0.00508981275462, Final residual = 1.05168868006e-09, No Iterations 3
DICPCG:  Solving for p, Initial residual = 0.00185136032188, Final residual = 1.55659628289e-05, No Iterations 100
DICPCG:  Solving for p, Initial residual = 1.53928800659e-05, Final residual = 4.45561060117e-08, No Iterations 4
DICPCG:  Solving for p, Initial residual = 4.45564460546e-08, Final residual = 7.01752825365e-09, No Iterations 3
time step continuity errors : sum local = 1.91261496074e-09, global = -5.38432158753e-10, cumulative = -6.49777812793e-09
ExecutionTime = 0.685535 s  ClockTime = 1 s



volFieldValue mindomain_scalar write:
    min() of p = 0.0503938574889 at location (7.96 0.0995649406574 0.1) in cell 2999

volFieldValue mindomain_vector write:
    minMag() of U = 0.031055402716 at location (0.2 0.0995649406574 0.1) in cell 89

volFieldValue maxdomain_scalar write:
    max() of p = 10.5739690445 at location (0.04 0.0995649406574 0.1) in cell 29

volFieldValue maxdomain_vector write:
    maxMag() of U = 1.48398525115 at location (0.68 0.0127006636098 0.0999999999999) in cell 241

yPlus yplus_stats write:
    patch top y+ : min = 0.080740182879, max = 0.0992475038791, average = 0.0829936064155

Time = 32s

DILUPBiCGStab:  Solving for Ux, Initial residual = 0.00381449763977, Final residual = 2.96102941862e-11, No Iterations 3
DILUPBiCGStab:  Solving for Uy, Initial residual = 0.00248769418936, Final residual = 1.19206228227e-09, No Iterations 3
DILUPBiCGStab:  Solving for Uz, Initial residual = 0.00493108545745, Final residual = 9.94987325634e-10, No Iterations 3
DICPCG:  Solving for p, Initial residual = 0.00172362688688, Final residual = 1.46987643811e-05, No Iterations 100
DICPCG:  Solving for p, Initial residual = 1.4540333008e-05, Final residual = 4.12925179083e-08, No Iterations 4
DICPCG:  Solving for p, Initial residual = 4.12927367733e-08, Final residual = 6.2946894002e-09, No Iterations 3
time step continuity errors : sum local = 1.7295152956e-09, global = -4.90395015025e-10, cumulative = -6.98817314296e-09
ExecutionTime = 0.700425 s  ClockTime = 1 s



volFieldValue mindomain_scalar write:
    min() of p = 0.0507873038477 at location (7.96 0.0995649406574 0.1) in cell 2999

volFieldValue mindomain_vector write:
    minMag() of U = 0.030335296243 at location (0.2 0.0995649406574 0.1) in cell 89

volFieldValue maxdomain_scalar write:
    max() of p = 10.6611461402 at location (0.04 0.0995649406574 0.1) in cell 29

volFieldValue maxdomain_vector write:
    maxMag() of U = 1.4958978082 at location (0.68 0.0127006636098 0.0999999999999) in cell 241

yPlus yplus_stats write:
    patch top y+ : min = 0.0797985989361, max = 0.0988550311149, average = 0.0821191765129

Time = 33s

DILUPBiCGStab:  Solving for Ux, Initial residual = 0.00364195937972, Final residual = 2.94812162585e-11, No Iterations 3
DILUPBiCGStab:  Solving for Uy, Initial residual = 0.00236128488086, Final residual = 1.13635916622e-09, No Iterations 3
DILUPBiCGStab:  Solving for Uz, Initial residual = 0.00478253369441, Final residual = 9.44023253876e-10, No Iterations 3
DICPCG:  Solving for p, Initial residual = 0.00160344471955, Final residual = 1.38306720748e-05, No Iterations 100
DICPCG:  Solving for p, Initial residual = 1.36863124553e-05, Final residual = 3.80915980297e-08, No Iterations 4
DICPCG:  Solving for p, Initial residual = 3.8091898963e-08, Final residual = 5.62216952857e-09, No Iterations 3
time step continuity errors : sum local = 1.55676017791e-09, global = -4.44654541149e-10, cumulative = -7.43282768411e-09
ExecutionTime = 0.716374 s  ClockTime = 1 s



volFieldValue mindomain_scalar write:
    min() of p = 0.0511740037998 at location (7.96 0.0995649406574 0.1) in cell 2999

volFieldValue mindomain_vector write:
    minMag() of U = 0.0296570361775 at location (0.2 0.0995649406574 0.1) in cell 89

volFieldValue maxdomain_scalar write:
    max() of p = 10.7468061988 at location (0.04 0.0995649406574 0.1) in cell 29

volFieldValue maxdomain_vector write:
    maxMag() of U = 1.50763800539 at location (0.68 0.0127006636098 0.0999999999999) in cell 241

yPlus yplus_stats write:
    patch top y+ : min = 0.0789014563728, max = 0.0984954343534, average = 0.0812855178524

Time = 34s

DILUPBiCGStab:  Solving for Ux, Initial residual = 0.00347932217476, Final residual = 2.93169238341e-11, No Iterations 3
DILUPBiCGStab:  Solving for Uy, Initial residual = 0.0022433647593, Final residual = 1.08095873635e-09, No Iterations 3
DILUPBiCGStab:  Solving for Uz, Initial residual = 0.00464309121466, Final residual = 8.97976035955e-10, No Iterations 3
DICPCG:  Solving for p, Initial residual = 0.00149060181202, Final residual = 1.29705473226e-05, No Iterations 100
DICPCG:  Solving for p, Initial residual = 1.2839554154e-05, Final residual = 3.49731830236e-08, No Iterations 4
DICPCG:  Solving for p, Initial residual = 3.49733548341e-08, Final residual = 4.99980266218e-09, No Iterations 3
time step continuity errors : sum local = 1.39478056365e-09, global = -4.01410668799e-10, cumulative = -7.83423835291e-09
ExecutionTime = 0.734385 s  ClockTime = 1 s



volFieldValue mindomain_scalar write:
    min() of p = 0.0515535106968 at location (7.96 0.0995649406574 0.1) in cell 2999

volFieldValue mindomain_vector write:
    minMag() of U = 0.0290176207725 at location (0.2 0.0995649406574 0.1) in cell 89

volFieldValue maxdomain_scalar write:
    max() of p = 10.8308581541 at location (0.04 0.0995649406574 0.1) in cell 29

volFieldValue maxdomain_vector write:
    maxMag() of U = 1.51919813547 at location (0.68 0.0127006636098 0.0999999999999) in cell 241

yPlus yplus_stats write:
    patch top y+ : min = 0.0780462510185, max = 0.0981658177924, average = 0.0804899636378

Time = 35s

DILUPBiCGStab:  Solving for Ux, Initial residual = 0.00332554921791, Final residual = 2.92980153138e-11, No Iterations 3
DILUPBiCGStab:  Solving for Uy, Initial residual = 0.0021328736727, Final residual = 1.02702036019e-09, No Iterations 3
DILUPBiCGStab:  Solving for Uz, Initial residual = 0.00451208478985, Final residual = 8.575734509e-10, No Iterations 3
DICPCG:  Solving for p, Initial residual = 0.00138487010429, Final residual = 1.2126367313e-05, No Iterations 100
DICPCG:  Solving for p, Initial residual = 1.20079530434e-05, Final residual = 3.19564600784e-08, No Iterations 4
DICPCG:  Solving for p, Initial residual = 3.19566816224e-08, Final residual = 4.42754904487e-09, No Iterations 3
time step continuity errors : sum local = 1.24404371785e-09, global = -3.60790977603e-10, cumulative = -8.19502933051e-09
ExecutionTime = 0.75109 s  ClockTime = 1 s



volFieldValue mindomain_scalar write:
    min() of p = 0.0519254596225 at location (7.96 0.0995649406574 0.1) in cell 2999

volFieldValue mindomain_vector write:
    minMag() of U = 0.0284143489504 at location (0.2 0.0995649406574 0.1) in cell 89

volFieldValue maxdomain_scalar write:
    max() of p = 10.9132278012 at location (0.04 0.0995649406574 0.1) in cell 29

volFieldValue maxdomain_vector write:
    maxMag() of U = 1.53059304318 at location (0.76 0.0127006636098 0.0999999999999) in cell 271

yPlus yplus_stats write:
    patch top y+ : min = 0.0772307052792, max = 0.0978635668015, average = 0.0797300970818

Time = 36s

DILUPBiCGStab:  Solving for Ux, Initial residual = 0.00317963646502, Final residual = 2.92185365257e-11, No Iterations 3
DILUPBiCGStab:  Solving for Uy, Initial residual = 0.00202943183092, Final residual = 9.74878409529e-10, No Iterations 3
DILUPBiCGStab:  Solving for Uz, Initial residual = 0.00438435405673, Final residual = 8.14639742148e-10, No Iterations 3
DICPCG:  Solving for p, Initial residual = 0.00128638637834, Final residual = 1.13066325007e-05, No Iterations 100
DICPCG:  Solving for p, Initial residual = 1.11999341734e-05, Final residual = 2.9052115029e-08, No Iterations 4
DICPCG:  Solving for p, Initial residual = 2.90522773298e-08, Final residual = 3.90569345788e-09, No Iterations 3
time step continuity errors : sum local = 1.10496397329e-09, global = -3.22864991174e-10, cumulative = -8.51789432168e-09
ExecutionTime = 0.768498 s  ClockTime = 1 s



volFieldValue mindomain_scalar write:
    min() of p = 0.0522895588749 at location (7.96 0.0995649406574 0.1) in cell 2999

volFieldValue mindomain_vector write:
    minMag() of U = 0.0278447800431 at location (0.2 0.0995649406574 0.1) in cell 89

volFieldValue maxdomain_scalar write:
    max() of p = 10.9938561897 at location (0.04 0.0995649406574 0.1) in cell 29

volFieldValue maxdomain_vector write:
    maxMag() of U = 1.54185933112 at location (0.76 0.0127006636098 0.0999999999999) in cell 271

yPlus yplus_stats write:
    patch top y+ : min = 0.0764527377268, max = 0.0975863159186, average = 0.0790037206924

Time = 37s

DILUPBiCGStab:  Solving for Ux, Initial residual = 0.00304122773141, Final residual = 2.90880616646e-11, No Iterations 3
DILUPBiCGStab:  Solving for Uy, Initial residual = 0.00193254421041, Final residual = 9.25213981967e-10, No Iterations 3
DILUPBiCGStab:  Solving for Uz, Initial residual = 0.00426370430676, Final residual = 7.78698980892e-10, No Iterations 3
DICPCG:  Solving for p, Initial residual = 0.0011950919849, Final residual = 1.05075842872e-05, No Iterations 100
DICPCG:  Solving for p, Initial residual = 1.04118192924e-05, Final residual = 2.63147213286e-08, No Iterations 4
DICPCG:  Solving for p, Initial residual = 2.63148883464e-08, Final residual = 3.43318967362e-09, No Iterations 3
time step continuity errors : sum local = 9.77760487863e-10, global = -2.87661967428e-10, cumulative = -8.80555628911e-09
ExecutionTime = 0.786636 s  ClockTime = 1 s



volFieldValue mindomain_scalar write:
    min() of p = 0.0526455821269 at location (7.96 0.0995649406574 0.1) in cell 2999

volFieldValue mindomain_vector write:
    minMag() of U = 0.0273066999244 at location (0.2 0.0995649406574 0.1) in cell 89

volFieldValue maxdomain_scalar write:
    max() of p = 11.0726978746 at location (0.04 0.0995649406574 0.1) in cell 29

volFieldValue maxdomain_vector write:
    maxMag() of U = 1.55293855513 at location (0.76 0.0127006636098 0.0999999999999) in cell 271

yPlus yplus_stats write:
    patch top y+ : min = 0.0757104373583, max = 0.097331921316, average = 0.0783088301337

Time = 38s

DILUPBiCGStab:  Solving for Ux, Initial residual = 0.00291020960736, Final residual = 2.90032049644e-11, No Iterations 3
DILUPBiCGStab:  Solving for Uy, Initial residual = 0.00184166019808, Final residual = 8.78743437364e-10, No Iterations 3
DILUPBiCGStab:  Solving for Uz, Initial residual = 0.00415153317709, Final residual = 7.46260504085e-10, No Iterations 3
DICPCG:  Solving for p, Initial residual = 0.00110983853597, Final residual = 9.73608400723e-06, No Iterations 100
DICPCG:  Solving for p, Initial residual = 9.6504335449e-06, Final residual = 2.37531092036e-08, No Iterations 4
DICPCG:  Solving for p, Initial residual = 2.37531598264e-08, Final residual = 3.01079464262e-09, No Iterations 3
time step continuity errors : sum local = 8.62910212231e-10, global = -2.55198924675e-10, cumulative = -9.06075521379e-09
ExecutionTime = 0.805107 s  ClockTime = 1 s



volFieldValue mindomain_scalar write:
    min() of p = 0.0529933609898 at location (7.96 0.0995649406574 0.1) in cell 2999

volFieldValue mindomain_vector write:
    minMag() of U = 0.026798092398 at location (0.2 0.0995649406574 0.1) in cell 89

volFieldValue maxdomain_scalar write:
    max() of p = 11.1497194017 at location (0.04 0.0995649406574 0.1) in cell 29

volFieldValue maxdomain_vector write:
    maxMag() of U = 1.56382495498 at location (0.76 0.0127006636098 0.0999999999999) in cell 271

yPlus yplus_stats write:
    patch top y+ : min = 0.0750020417486, max = 0.0970984369727, average = 0.0776435918638

Time = 39s

DILUPBiCGStab:  Solving for Ux, Initial residual = 0.00278606652969, Final residual = 2.88832307443e-11, No Iterations 3
DILUPBiCGStab:  Solving for Uy, Initial residual = 0.00175659166332, Final residual = 8.36840697685e-10, No Iterations 3
DILUPBiCGStab:  Solving for Uz, Initial residual = 0.0040418237278, Final residual = 7.14214738772e-10, No Iterations 3
DICPCG:  Solving for p, Initial residual = 0.0010302787337, Final residual = 8.99903627648e-06, No Iterations 100
DICPCG:  Solving for p, Initial residual = 8.92265595178e-06, Final residual = 2.13308307641e-08, No Iterations 4
DICPCG:  Solving for p, Initial residual = 2.13309487305e-08, Final residual = 2.63313426788e-09, No Iterations 3
time step continuity errors : sum local = 7.59285426416e-10, global = -2.25414576259e-10, cumulative = -9.28616979005e-09
ExecutionTime = 0.824621 s  ClockTime = 1 s



volFieldValue mindomain_scalar write:
    min() of p = 0.053332778103 at location (7.96 0.0995649406574 0.1) in cell 2999

volFieldValue mindomain_vector write:
    minMag() of U = 0.0263171150686 at location (0.2 0.0995649406574 0.1) in cell 89

volFieldValue maxdomain_scalar write:
    max() of p = 11.2248978888 at location (0.04 0.0995649406574 0.1) in cell 29

volFieldValue maxdomain_vector write:
    maxMag() of U = 1.57451325673 at location (0.76 0.0127006636098 0.0999999999999) in cell 271

yPlus yplus_stats write:
    patch top y+ : min = 0.0743259186621, max = 0.0968840939408, average = 0.0770063239183

Time = 40s

DILUPBiCGStab:  Solving for Ux, Initial residual = 0.00266904955703, Final residual = 2.8723276621e-11, No Iterations 3
DILUPBiCGStab:  Solving for Uy, Initial residual = 0.001676733035, Final residual = 7.98848070842e-10, No Iterations 3
DILUPBiCGStab:  Solving for Uz, Initial residual = 0.00393707357152, Final residual = 6.82333116509e-10, No Iterations 3
DICPCG:  Solving for p, Initial residual = 0.000956228229301, Final residual = 8.29884168558e-06, No Iterations 100
DICPCG:  Solving for p, Initial residual = 8.23090724945e-06, Final residual = 1.90627368553e-08, No Iterations 4
DICPCG:  Solving for p, Initial residual = 1.90628155464e-08, Final residual = 2.29488716974e-09, No Iterations 3
time step continuity errors : sum local = 6.65643125828e-10, global = -1.98216595223e-10, cumulative = -9.48438638527e-09
ExecutionTime = 0.841806 s  ClockTime = 1 s



volFieldValue mindomain_scalar write:
    min() of p = 0.0536637608734 at location (7.96 0.0995649406574 0.1) in cell 2999

volFieldValue mindomain_vector write:
    minMag() of U = 0.0258620788235 at location (0.2 0.0995649406574 0.1) in cell 89

volFieldValue maxdomain_scalar write:
    max() of p = 11.2982194934 at location (0.04 0.0995649406574 0.1) in cell 29

volFieldValue maxdomain_vector write:
    maxMag() of U = 1.58502181687 at location (0.84 0.0127006636098 0.0999999999999) in cell 301

yPlus yplus_stats write:
    patch top y+ : min = 0.0736805504279, max = 0.0966872822083, average = 0.0763954793185

Time = 41s

DILUPBiCGStab:  Solving for Ux, Initial residual = 0.00255888303866, Final residual = 2.85335309794e-11, No Iterations 3
DILUPBiCGStab:  Solving for Uy, Initial residual = 0.00160171287336, Final residual = 7.64688292966e-10, No Iterations 3
DILUPBiCGStab:  Solving for Uz, Initial residual = 0.00383814584222, Final residual = 6.52260203195e-10, No Iterations 3
DICPCG:  Solving for p, Initial residual = 0.000887314397501, Final residual = 7.63744670984e-06, No Iterations 100
DICPCG:  Solving for p, Initial residual = 7.57716121547e-06, Final residual = 1.69504078828e-08, No Iterations 4
DICPCG:  Solving for p, Initial residual = 1.69505746788e-08, Final residual = 1.99208679334e-09, No Iterations 3
time step continuity errors : sum local = 5.81060149623e-10, global = -1.73522594739e-10, cumulative = -9.65790898001e-09
ExecutionTime = 0.860307 s  ClockTime = 1 s



volFieldValue mindomain_scalar write:
    min() of p = 0.0539862758916 at location (7.96 0.0995649406574 0.1) in cell 2999

volFieldValue mindomain_vector write:
    minMag() of U = 0.0254314302768 at location (0.2 0.0995649406574 0.1) in cell 89

volFieldValue maxdomain_scalar write:
    max() of p = 11.3696783872 at location (0.04 0.0995649406574 0.1) in cell 29

volFieldValue maxdomain_vector write:
    maxMag() of U = 1.59535761743 at location (0.84 0.0127006636098 0.0999999999999) in cell 301

yPlus yplus_stats write:
    patch top y+ : min = 0.0730645205796, max = 0.0965065347677, average = 0.0758096316907

Time = 42s

DILUPBiCGStab:  Solving for Ux, Initial residual = 0.00245415985243, Final residual = 2.83062281302e-11, No Iterations 3
DILUPBiCGStab:  Solving for Uy, Initial residual = 0.00153129080855, Final residual = 7.33596686231e-10, No Iterations 3
DILUPBiCGStab:  Solving for Uz, Initial residual = 0.00374221572439, Final residual = 6.22292898679e-10, No Iterations 3
DICPCG:  Solving for p, Initial residual = 0.000823246798844, Final residual = 7.01084851692e-06, No Iterations 100
DICPCG:  Solving for p, Initial residual = 6.95750540276e-06, Final residual = 1.49993964389e-08, No Iterations 4
DICPCG:  Solving for p, Initial residual = 1.49994003167e-08, Final residual = 1.72059179721e-09, No Iterations 3
time step continuity errors : sum local = 5.04556503847e-10, global = -1.51171979431e-10, cumulative = -9.80908095944e-09
ExecutionTime = 0.875418 s  ClockTime = 1 s



volFieldValue mindomain_scalar write:
    min() of p = 0.0543003239698 at location (7.96 0.0995649406574 0.1) in cell 2999

volFieldValue mindomain_vector write:
    minMag() of U = 0.0250237367171 at location (0.2 0.0995649406574 0.1) in cell 89

volFieldValue maxdomain_scalar write:
    max() of p = 11.4392758664 at location (0.04 0.0995649406574 0.1) in cell 29

volFieldValue maxdomain_vector write:
    maxMag() of U = 1.60549191473 at location (0.84 0.0127006636098 0.0999999999999) in cell 301

yPlus yplus_stats write:
    patch top y+ : min = 0.0724765024453, max = 0.0963405135665, average = 0.0752474627603

Time = 43s

DILUPBiCGStab:  Solving for Ux, Initial residual = 0.00235452118632, Final residual = 2.80579855805e-11, No Iterations 3
DILUPBiCGStab:  Solving for Uy, Initial residual = 0.00146494909747, Final residual = 7.04360143605e-10, No Iterations 3
DILUPBiCGStab:  Solving for Uz, Initial residual = 0.00364749812596, Final residual = 5.94998041669e-10, No Iterations 3
DICPCG:  Solving for p, Initial residual = 0.00076448607089, Final residual = 6.41963576449e-06, No Iterations 100
DICPCG:  Solving for p, Initial residual = 6.37256213623e-06, Final residual = 6.35750269981e-08, No Iterations 3
DICPCG:  Solving for p, Initial residual = 6.35752798238e-08, Final residual = 2.35082380529e-09, No Iterations 3
time step continuity errors : sum local = 6.92947502988e-10, global = -1.78148427625e-10, cumulative = -9.98722938706e-09
ExecutionTime = 0.891154 s  ClockTime = 1 s



volFieldValue mindomain_scalar write:
    min() of p = 0.0546059342859 at location (7.96 0.0995649406574 0.1) in cell 2999

volFieldValue mindomain_vector write:
    minMag() of U = 0.0246376731388 at location (0.2 0.0995649406574 0.1) in cell 89

volFieldValue maxdomain_scalar write:
    max() of p = 11.5070195689 at location (0.04 0.0995649406574 0.1) in cell 29

volFieldValue maxdomain_vector write:
    maxMag() of U = 1.61542156543 at location (0.84 0.0127006636098 0.0999999999999) in cell 301

yPlus yplus_stats write:
    patch top y+ : min = 0.0719152493639, max = 0.0961879970727, average = 0.0747077514359

Time = 44s

DILUPBiCGStab:  Solving for Ux, Initial residual = 0.00225964443128, Final residual = 2.77886976381e-11, No Iterations 3
DILUPBiCGStab:  Solving for Uy, Initial residual = 0.00140213962874, Final residual = 6.76545791248e-10, No Iterations 3
DILUPBiCGStab:  Solving for Uz, Initial residual = 0.00356036150395, Final residual = 5.70647543862e-10, No Iterations 3
DICPCG:  Solving for p, Initial residual = 0.000710489157202, Final residual = 5.86168724102e-06, No Iterations 100
DICPCG:  Solving for p, Initial residual = 5.82026621124e-06, Final residual = 5.67832298447e-08, No Iterations 3
DICPCG:  Solving for p, Initial residual = 5.67833605706e-08, Final residual = 2.01694052184e-09, No Iterations 3
time step continuity errors : sum local = 5.97476719749e-10, global = -1.52973867188e-10, cumulative = -1.01402032543e-08
ExecutionTime = 0.913312 s  ClockTime = 1 s



volFieldValue mindomain_scalar write:
    min() of p = 0.054903166593 at location (7.96 0.0995649406574 0.1) in cell 2999

volFieldValue mindomain_vector write:
    minMag() of U = 0.0242720109865 at location (0.2 0.0995649406574 0.1) in cell 89

volFieldValue maxdomain_scalar write:
    max() of p = 11.5729223448 at location (0.04 0.0995649406574 0.1) in cell 29

volFieldValue maxdomain_vector write:
    maxMag() of U = 1.62514393777 at location (0.84 0.0127006636098 0.0999999999999) in cell 301

yPlus yplus_stats write:
    patch top y+ : min = 0.0713795862213, max = 0.0960478692297, average = 0.0741893642391

Time = 45s

DILUPBiCGStab:  Solving for Ux, Initial residual = 0.0021692415233, Final residual = 2.74890788972e-11, No Iterations 3
DILUPBiCGStab:  Solving for Uy, Initial residual = 0.00134265306286, Final residual = 6.50257853102e-10, No Iterations 3
DILUPBiCGStab:  Solving for Uz, Initial residual = 0.00347420149603, Final residual = 5.46750530713e-10, No Iterations 3
DICPCG:  Solving for p, Initial residual = 0.000660390195335, Final residual = 5.33857171143e-06, No Iterations 100
DICPCG:  Solving for p, Initial residual = 5.30222308082e-06, Final residual = 5.04904397842e-08, No Iterations 3
DICPCG:  Solving for p, Initial residual = 5.0490584938e-08, Final residual = 1.72332097462e-09, No Iterations 3
time step continuity errors : sum local = 5.12928210559e-10, global = -1.30623101538e-10, cumulative = -1.02708263558e-08
ExecutionTime = 0.929436 s  ClockTime = 1 s



volFieldValue mindomain_scalar write:
    min() of p = 0.0551920980981 at location (7.96 0.0995649406574 0.1) in cell 2999

volFieldValue mindomain_vector write:
    minMag() of U = 0.0239256084324 at location (0.2 0.0995649406574 0.1) in cell 89

volFieldValue maxdomain_scalar write:
    max() of p = 11.6370015998 at location (0.04 0.0995649406574 0.1) in cell 29

volFieldValue maxdomain_vector write:
    maxMag() of U = 1.6346938913 at location (0.92 0.0127006636098 0.0999999999999) in cell 331

yPlus yplus_stats write:
    patch top y+ : min = 0.0708684022308, max = 0.0959191096119, average = 0.0736912468869

Time = 46s

DILUPBiCGStab:  Solving for Ux, Initial residual = 0.00208304949522, Final residual = 2.717601107e-11, No Iterations 3
DILUPBiCGStab:  Solving for Uy, Initial residual = 0.0012861939723, Final residual = 6.2511043998e-10, No Iterations 3
DILUPBiCGStab:  Solving for Uz, Initial residual = 0.0033920210014, Final residual = 5.2338854949e-10, No Iterations 3
DICPCG:  Solving for p, Initial residual = 0.000614083891443, Final residual = 4.85054266643e-06, No Iterations 100
DICPCG:  Solving for p, Initial residual = 4.81872587181e-06, Final residual = 4.46749262153e-08, No Iterations 3
DICPCG:  Solving for p, Initial residual = 4.46749617205e-08, Final residual = 1.47009947372e-09, No Iterations 3
time step continuity errors : sum local = 4.39548462926e-10, global = -1.10869456293e-10, cumulative = -1.03816958121e-08
ExecutionTime = 0.944934 s  ClockTime = 1 s



volFieldValue mindomain_scalar write:
    min() of p = 0.0554728257915 at location (7.96 0.0995649406574 0.1) in cell 2999

volFieldValue mindomain_vector write:
    minMag() of U = 0.0235974019543 at location (0.2 0.0995649406574 0.1) in cell 89

volFieldValue maxdomain_scalar write:
    max() of p = 11.6992787193 at location (0.04 0.0995649406574 0.1) in cell 29

volFieldValue maxdomain_vector write:
    maxMag() of U = 1.64404044744 at location (0.92 0.0127006636098 0.0999999999999) in cell 331

yPlus yplus_stats write:
    patch top y+ : min = 0.0703806447773, max = 0.0958007846221, average = 0.0732124168717

Time = 47s

DILUPBiCGStab:  Solving for Ux, Initial residual = 0.00200082576766, Final residual = 2.68379631997e-11, No Iterations 3
DILUPBiCGStab:  Solving for Uy, Initial residual = 0.00123260466866, Final residual = 6.00281381435e-10, No Iterations 3
DILUPBiCGStab:  Solving for Uz, Initial residual = 0.00331401381433, Final residual = 5.04729024566e-10, No Iterations 3
DICPCG:  Solving for p, Initial residual = 0.000571911157583, Final residual = 4.39631577613e-06, No Iterations 100
DICPCG:  Solving for p, Initial residual = 4.36853631241e-06, Final residual = 3.93327803166e-08, No Iterations 3
DICPCG:  Solving for p, Initial residual = 3.93328538666e-08, Final residual = 1.25443599239e-09, No Iterations 3
time step continuity errors : sum local = 3.76732055779e-10, global = -9.36199518213e-11, cumulative = -1.04753157639e-08
ExecutionTime = 0.964625 s  ClockTime = 1 s



volFieldValue mindomain_scalar write:
    min() of p = 0.0557454634214 at location (7.96 0.0995649406574 0.1) in cell 2999

volFieldValue mindomain_vector write:
    minMag() of U = 0.0232863989427 at location (0.2 0.0995649406574 0.1) in cell 89

volFieldValue maxdomain_scalar write:
    max() of p = 11.7597785365 at location (0.04 0.0995649406574 0.1) in cell 29

volFieldValue maxdomain_vector write:
    maxMag() of U = 1.65318091902 at location (0.92 0.0127006636098 0.0999999999999) in cell 331

yPlus yplus_stats write:
    patch top y+ : min = 0.0699153140567, max = 0.0956920396006, average = 0.0727519569014

Time = 48s

DILUPBiCGStab:  Solving for Ux, Initial residual = 0.00192232431298, Final residual = 2.64841369693e-11, No Iterations 3
DILUPBiCGStab:  Solving for Uy, Initial residual = 0.00118171473476, Final residual = 5.75208665698e-10, No Iterations 3
DILUPBiCGStab:  Solving for Uz, Initial residual = 0.00323838138102, Final residual = 4.87827743093e-10, No Iterations 3
DICPCG:  Solving for p, Initial residual = 0.000532711575309, Final residual = 3.97382525141e-06, No Iterations 100
DICPCG:  Solving for p, Initial residual = 3.94963734048e-06, Final residual = 3.43850673881e-08, No Iterations 3
DICPCG:  Solving for p, Initial residual = 3.43851447134e-08, Final residual = 1.0712098168e-09, No Iterations 3
time step continuity errors : sum local = 3.23083624456e-10, global = -7.86949285765e-11, cumulative = -1.05540106925e-08
ExecutionTime = 0.983519 s  ClockTime = 1 s



volFieldValue mindomain_scalar write:
    min() of p = 0.0560101386149 at location (7.96 0.0995649406574 0.1) in cell 2999

volFieldValue mindomain_vector write:
    minMag() of U = 0.0229916712233 at location (0.2 0.0995649406574 0.1) in cell 89

volFieldValue maxdomain_scalar write:
    max() of p = 11.8185287098 at location (0.04 0.0995649406574 0.1) in cell 29

volFieldValue maxdomain_vector write:
    maxMag() of U = 1.66211451304 at location (0.92 0.0127006636098 0.0999999999999) in cell 331

yPlus yplus_stats write:
    patch top y+ : min = 0.0694714584466, max = 0.0955920917369, average = 0.072309009077

Time = 49s

DILUPBiCGStab:  Solving for Ux, Initial residual = 0.0018471416654, Final residual = 2.6107877641e-11, No Iterations 3
DILUPBiCGStab:  Solving for Uy, Initial residual = 0.00113331058592, Final residual = 5.50063338776e-10, No Iterations 3
DILUPBiCGStab:  Solving for Uz, Initial residual = 0.00316518103412, Final residual = 4.71837298309e-10, No Iterations 3
DICPCG:  Solving for p, Initial residual = 0.000496298466579, Final residual = 3.5817367955e-06, No Iterations 100
DICPCG:  Solving for p, Initial residual = 3.56073684122e-06, Final residual = 2.98050015963e-08, No Iterations 3
DICPCG:  Solving for p, Initial residual = 2.98050092998e-08, Final residual = 9.16821744958e-10, No Iterations 3
time step continuity errors : sum local = 2.77645469135e-10, global = -6.58120830921e-11, cumulative = -1.06198227756e-08
ExecutionTime = 1.00131 s  ClockTime = 1 s



volFieldValue mindomain_scalar write:
    min() of p = 0.0562669903785 at location (7.96 0.0995649406574 0.1) in cell 2999

volFieldValue mindomain_vector write:
    minMag() of U = 0.0227123493383 at location (0.2 0.0995649406574 0.1) in cell 89

volFieldValue maxdomain_scalar write:
    max() of p = 11.875559194 at location (0.04 0.0995649406574 0.1) in cell 29

volFieldValue maxdomain_vector write:
    maxMag() of U = 1.67085530419 at location (1 0.0127006636098 0.0999999999999) in cell 361

yPlus yplus_stats write:
    patch top y+ : min = 0.0690481704658, max = 0.0955002236902, average = 0.0718827697111

Time = 50s

DILUPBiCGStab:  Solving for Ux, Initial residual = 0.00177512262619, Final residual = 2.57116732362e-11, No Iterations 3
DILUPBiCGStab:  Solving for Uy, Initial residual = 0.00108722709338, Final residual = 5.24900251603e-10, No Iterations 3
DILUPBiCGStab:  Solving for Uz, Initial residual = 0.00309549989449, Final residual = 4.61607298132e-10, No Iterations 3
DICPCG:  Solving for p, Initial residual = 0.000463297394673, Final residual = 3.21930810692e-06, No Iterations 100
DICPCG:  Solving for p, Initial residual = 3.20112734841e-06, Final residual = 2.55569879852e-08, No Iterations 3
DICPCG:  Solving for p, Initial residual = 2.5557032656e-08, Final residual = 7.87600018597e-10, No Iterations 3
time step continuity errors : sum local = 2.39441587362e-10, global = -5.49403164316e-11, cumulative = -1.0674763092e-08
ExecutionTime = 1.017909 s  ClockTime = 1 s



volFieldValue mindomain_scalar write:
    min() of p = 0.0565161669755 at location (7.96 0.0995649406574 0.1) in cell 2999

volFieldValue mindomain_vector write:
    minMag() of U = 0.0224476174879 at location (0.2 0.0995649406574 0.1) in cell 89

volFieldValue maxdomain_scalar write:
    max() of p = 11.9309019201 at location (0.04 0.0995649406574 0.1) in cell 29

volFieldValue maxdomain_vector write:
    maxMag() of U = 1.67940241028 at location (1 0.0127006636098 0.0999999999999) in cell 361

yPlus yplus_stats write:
    patch top y+ : min = 0.068644583249, max = 0.0954157778347, average = 0.0714724847077

Time = 51s

DILUPBiCGStab:  Solving for Ux, Initial residual = 0.00170629339857, Final residual = 2.52995311223e-11, No Iterations 3
DILUPBiCGStab:  Solving for Uy, Initial residual = 0.00104334858035, Final residual = 4.9943103602e-10, No Iterations 3
DILUPBiCGStab:  Solving for Uz, Initial residual = 0.00302570341633, Final residual = 4.48215325432e-10, No Iterations 3
DICPCG:  Solving for p, Initial residual = 0.000432674512206, Final residual = 2.88481084096e-06, No Iterations 100
DICPCG:  Solving for p, Initial residual = 2.8691183789e-06, Final residual = 2.16024984996e-08, No Iterations 3
DICPCG:  Solving for p, Initial residual = 2.16025194532e-08, Final residual = 6.76103559655e-10, No Iterations 3
time step continuity errors : sum local = 2.06281396167e-10, global = -4.56293002989e-11, cumulative = -1.07203923923e-08
ExecutionTime = 1.039016 s  ClockTime = 1 s



volFieldValue mindomain_scalar write:
    min() of p = 0.0567578241569 at location (7.96 0.0995649406574 0.1) in cell 2999

volFieldValue mindomain_vector write:
    minMag() of U = 0.0221967090913 at location (0.2 0.0995649406574 0.1) in cell 89

volFieldValue maxdomain_scalar write:
    max() of p = 11.984590443 at location (0.04 0.0995649406574 0.1) in cell 29

volFieldValue maxdomain_vector write:
    maxMag() of U = 1.68774687463 at location (1 0.0127006636098 0.0999999999999) in cell 361

yPlus yplus_stats write:
    patch top y+ : min = 0.0682598675402, max = 0.0953381510574, average = 0.0710774454339

Time = 52s

DILUPBiCGStab:  Solving for Ux, Initial residual = 0.00164048568933, Final residual = 2.48939431223e-11, No Iterations 3
DILUPBiCGStab:  Solving for Uy, Initial residual = 0.00100154517733, Final residual = 4.74317095408e-10, No Iterations 3
DILUPBiCGStab:  Solving for Uz, Initial residual = 0.00295774934992, Final residual = 4.36819426804e-10, No Iterations 3
DICPCG:  Solving for p, Initial residual = 0.00040418378292, Final residual = 2.57666263471e-06, No Iterations 100
DICPCG:  Solving for p, Initial residual = 2.56316155332e-06, Final residual = 1.79422911308e-08, No Iterations 3
[...]

volFieldValue maxdomain_vector write:
    maxMag() of U = 1.99072925766 at location (7.96 0.00560560819347 0.0999999999998) in cell 2970

yPlus yplus_stats write:
    patch top y+ : min = 0.0593547056549, max = 0.0944503213166, average = 0.0600544585839

Time = 988s

DILUPBiCGStab:  Solving for Ux, Initial residual = 6.15492089022e-14, Final residual = 4.62506387156e-21, No Iterations 3
DILUPBiCGStab:  Solving for Uy, Initial residual = 4.39138572848e-13, Final residual = 1.47891873944e-18, No Iterations 3
DILUPBiCGStab:  Solving for Uz, Initial residual = 9.87853693973e-06, Final residual = 5.57293453842e-12, No Iterations 3
DICPCG:  Solving for p, Initial residual = 2.56829663052e-12, Final residual = 2.67184346977e-12, No Iterations 3
DICPCG:  Solving for p, Initial residual = 3.46928114332e-12, Final residual = 1.57501545392e-12, No Iterations 3
DICPCG:  Solving for p, Initial residual = 2.83049988028e-12, Final residual = 1.99314353959e-12, No Iterations 3
time step continuity errors : sum local = 1.12178567461e-12, global = -2.46883887344e-13, cumulative = -3.13195731886e-08
ExecutionTime = 16.422014 s  ClockTime = 16 s



volFieldValue mindomain_scalar write:
    min() of p = 0.0639708121194 at location (7.96 0.0995649406574 0.1) in cell 2999

volFieldValue mindomain_vector write:
    minMag() of U = 0.0167829391178 at location (7.96 0.0995649406574 0.1) in cell 2999

volFieldValue maxdomain_scalar write:
    max() of p = 13.5843042815 at location (0.04 0.0995649406574 0.1) in cell 29

volFieldValue maxdomain_vector write:
    maxMag() of U = 1.99072925766 at location (7.96 0.00560560819347 0.0999999999998) in cell 2970

yPlus yplus_stats write:
    patch top y+ : min = 0.0593547056549, max = 0.0944503213166, average = 0.0600544585839

Time = 989s

DILUPBiCGStab:  Solving for Ux, Initial residual = 6.03924342847e-14, Final residual = 5.2386214902e-21, No Iterations 3
DILUPBiCGStab:  Solving for Uy, Initial residual = 4.26905555073e-13, Final residual = 2.72935467083e-19, No Iterations 3
DILUPBiCGStab:  Solving for Uz, Initial residual = 9.50982848829e-06, Final residual = 8.93826162256e-13, No Iterations 3
DICPCG:  Solving for p, Initial residual = 2.89939208595e-12, Final residual = 3.2805550852e-12, No Iterations 3
DICPCG:  Solving for p, Initial residual = 3.87466249241e-12, Final residual = 1.87910908605e-12, No Iterations 3
DICPCG:  Solving for p, Initial residual = 3.2266039879e-12, Final residual = 2.78445428755e-12, No Iterations 3
time step continuity errors : sum local = 1.22770209288e-12, global = -2.98489893383e-13, cumulative = -3.13198716785e-08
ExecutionTime = 16.4379 s  ClockTime = 16 s



volFieldValue mindomain_scalar write:
    min() of p = 0.0639708121195 at location (7.96 0.0995649406574 0.1) in cell 2999

volFieldValue mindomain_vector write:
    minMag() of U = 0.0167829391178 at location (7.96 0.0995649406574 0.1) in cell 2999

volFieldValue maxdomain_scalar write:
    max() of p = 13.5843042815 at location (0.04 0.0995649406574 0.1) in cell 29

volFieldValue maxdomain_vector write:
    maxMag() of U = 1.99072925766 at location (7.96 0.00560560819347 0.0999999999998) in cell 2970

yPlus yplus_stats write:
    patch top y+ : min = 0.0593547056549, max = 0.0944503213166, average = 0.0600544585839

Time = 990s

DILUPBiCGStab:  Solving for Ux, Initial residual = 5.86833793774e-14, Final residual = 5.94053480156e-21, No Iterations 3
DILUPBiCGStab:  Solving for Uy, Initial residual = 4.23183961651e-13, Final residual = 6.09704164047e-19, No Iterations 3
DILUPBiCGStab:  Solving for Uz, Initial residual = 9.87297070333e-06, Final residual = 5.98892400802e-12, No Iterations 3
DICPCG:  Solving for p, Initial residual = 3.0249757469e-12, Final residual = 2.69710853267e-12, No Iterations 3
DICPCG:  Solving for p, Initial residual = 3.68536138643e-12, Final residual = 2.53987309374e-12, No Iterations 3
DICPCG:  Solving for p, Initial residual = 3.4703393971e-12, Final residual = 2.16286247858e-12, No Iterations 3
time step continuity errors : sum local = 1.15571699125e-12, global = -3.52656784317e-13, cumulative = -3.13202243353e-08
ExecutionTime = 16.457997 s  ClockTime = 16 s



volFieldValue mindomain_scalar write:
    min() of p = 0.0639708121195 at location (7.96 0.0995649406574 0.1) in cell 2999

volFieldValue mindomain_vector write:
    minMag() of U = 0.0167829391178 at location (7.96 0.0995649406574 0.1) in cell 2999

volFieldValue maxdomain_scalar write:
    max() of p = 13.5843042815 at location (0.04 0.0995649406574 0.1) in cell 29

volFieldValue maxdomain_vector write:
    maxMag() of U = 1.99072925766 at location (7.96 0.00560560819347 0.0999999999998) in cell 2970

yPlus yplus_stats write:
    patch top y+ : min = 0.0593547056549, max = 0.0944503213166, average = 0.0600544585839

Time = 991s

DILUPBiCGStab:  Solving for Ux, Initial residual = 5.7326422478e-14, Final residual = 4.78474242718e-21, No Iterations 3
DILUPBiCGStab:  Solving for Uy, Initial residual = 4.20402902107e-13, Final residual = 2.99347018796e-19, No Iterations 3
DILUPBiCGStab:  Solving for Uz, Initial residual = 9.49767703263e-06, Final residual = 1.5903641791e-12, No Iterations 3
DICPCG:  Solving for p, Initial residual = 3.03050168217e-12, Final residual = 4.86976539621e-12, No Iterations 3
DICPCG:  Solving for p, Initial residual = 5.74697571839e-12, Final residual = 1.96663482322e-12, No Iterations 3
DICPCG:  Solving for p, Initial residual = 3.20810831062e-12, Final residual = 4.58239140995e-12, No Iterations 3
time step continuity errors : sum local = 1.89099959881e-12, global = -3.91209090115e-13, cumulative = -3.13206155444e-08
ExecutionTime = 16.472798 s  ClockTime = 16 s



volFieldValue mindomain_scalar write:
    min() of p = 0.0639708121199 at location (7.96 0.0995649406574 0.1) in cell 2999

volFieldValue mindomain_vector write:
    minMag() of U = 0.0167829391178 at location (7.96 0.0995649406574 0.1) in cell 2999

volFieldValue maxdomain_scalar write:
    max() of p = 13.5843042815 at location (0.04 0.0995649406574 0.1) in cell 29

volFieldValue maxdomain_vector write:
    maxMag() of U = 1.99072925766 at location (7.96 0.00560560819347 0.0999999999998) in cell 2970

yPlus yplus_stats write:
    patch top y+ : min = 0.0593547056549, max = 0.0944503213166, average = 0.0600544585839

Time = 992s

DILUPBiCGStab:  Solving for Ux, Initial residual = 5.65977729105e-14, Final residual = 1.26816241496e-20, No Iterations 3
DILUPBiCGStab:  Solving for Uy, Initial residual = 5.12540956442e-13, Final residual = 3.64461781246e-19, No Iterations 3
DILUPBiCGStab:  Solving for Uz, Initial residual = 1.05889345423e-05, Final residual = 1.06403802236e-12, No Iterations 3
DICPCG:  Solving for p, Initial residual = 4.67344502396e-12, Final residual = 3.43662984323e-12, No Iterations 3
DICPCG:  Solving for p, Initial residual = 4.04516683704e-12, Final residual = 3.8890573921e-12, No Iterations 3
DICPCG:  Solving for p, Initial residual = 4.88526233456e-12, Final residual = 3.26512251704e-12, No Iterations 3
time step continuity errors : sum local = 1.35147655746e-12, global = -4.47676518175e-13, cumulative = -3.13210632209e-08
ExecutionTime = 16.489398 s  ClockTime = 16 s



volFieldValue mindomain_scalar write:
    min() of p = 0.0639708121198 at location (7.96 0.0995649406574 0.1) in cell 2999

volFieldValue mindomain_vector write:
    minMag() of U = 0.0167829391178 at location (7.96 0.0995649406574 0.1) in cell 2999

volFieldValue maxdomain_scalar write:
    max() of p = 13.5843042815 at location (0.04 0.0995649406574 0.1) in cell 29

volFieldValue maxdomain_vector write:
    maxMag() of U = 1.99072925766 at location (7.96 0.00560560819347 0.0999999999998) in cell 2970

yPlus yplus_stats write:
    patch top y+ : min = 0.0593547056549, max = 0.0944503213166, average = 0.0600544585839

Time = 993s

DILUPBiCGStab:  Solving for Ux, Initial residual = 5.3434512287e-14, Final residual = 5.86539258639e-21, No Iterations 3
DILUPBiCGStab:  Solving for Uy, Initial residual = 4.98167633005e-13, Final residual = 1.78061527202e-19, No Iterations 3
DILUPBiCGStab:  Solving for Uz, Initial residual = 1.01156041016e-05, Final residual = 5.44017406528e-12, No Iterations 3
DICPCG:  Solving for p, Initial residual = 3.50407870701e-12, Final residual = 1.34717486631e-11, No Iterations 3
DICPCG:  Solving for p, Initial residual = 1.41803521443e-11, Final residual = 4.62599273752e-12, No Iterations 3
DICPCG:  Solving for p, Initial residual = 5.06655335118e-12, Final residual = 5.86655153351e-12, No Iterations 3
time step continuity errors : sum local = 2.17303123952e-12, global = -4.79347693234e-13, cumulative = -3.13215425686e-08
ExecutionTime = 16.504503 s  ClockTime = 16 s



volFieldValue mindomain_scalar write:
    min() of p = 0.0639708121201 at location (7.96 0.0995649406574 0.1) in cell 2999

volFieldValue mindomain_vector write:
    minMag() of U = 0.0167829391178 at location (7.96 0.0995649406574 0.1) in cell 2999

volFieldValue maxdomain_scalar write:
    max() of p = 13.5843042815 at location (0.04 0.0995649406574 0.1) in cell 29

volFieldValue maxdomain_vector write:
    maxMag() of U = 1.99072925766 at location (7.96 0.00560560819347 0.0999999999998) in cell 2970

yPlus yplus_stats write:
    patch top y+ : min = 0.0593547056549, max = 0.0944503213166, average = 0.0600544585839

Time = 994s

DILUPBiCGStab:  Solving for Ux, Initial residual = 4.96668598231e-14, Final residual = 1.69007169935e-20, No Iterations 3
DILUPBiCGStab:  Solving for Uy, Initial residual = 6.79800741624e-13, Final residual = 2.2155822188e-19, No Iterations 3
DILUPBiCGStab:  Solving for Uz, Initial residual = 1.02218789532e-05, Final residual = 1.27488300961e-12, No Iterations 3
DICPCG:  Solving for p, Initial residual = 5.53025083985e-12, Final residual = 3.8799636459e-12, No Iterations 3
DICPCG:  Solving for p, Initial residual = 4.44554029487e-12, Final residual = 4.95196571698e-12, No Iterations 3
DICPCG:  Solving for p, Initial residual = 5.9421910936e-12, Final residual = 3.17570561314e-12, No Iterations 3
time step continuity errors : sum local = 1.37004779882e-12, global = -5.29827679497e-13, cumulative = -3.13220723963e-08
ExecutionTime = 16.538899 s  ClockTime = 16 s



volFieldValue mindomain_scalar write:
    min() of p = 0.0639708121199 at location (7.96 0.0995649406574 0.1) in cell 2999

volFieldValue mindomain_vector write:
    minMag() of U = 0.0167829391178 at location (7.96 0.0995649406574 0.1) in cell 2999

volFieldValue maxdomain_scalar write:
    max() of p = 13.5843042815 at location (0.04 0.0995649406574 0.1) in cell 29

volFieldValue maxdomain_vector write:
    maxMag() of U = 1.99072925766 at location (7.96 0.00560560819347 0.0999999999998) in cell 2970

yPlus yplus_stats write:
    patch top y+ : min = 0.0593547056549, max = 0.0944503213166, average = 0.0600544585839

Time = 995s

DILUPBiCGStab:  Solving for Ux, Initial residual = 4.72264889615e-14, Final residual = 6.32143182949e-21, No Iterations 3
DILUPBiCGStab:  Solving for Uy, Initial residual = 5.32164564148e-13, Final residual = 1.81006099261e-19, No Iterations 3
DILUPBiCGStab:  Solving for Uz, Initial residual = 1.04663582653e-05, Final residual = 1.50265631719e-12, No Iterations 3
DICPCG:  Solving for p, Initial residual = 3.84586507542e-12, Final residual = 1.23626552337e-11, No Iterations 3
DICPCG:  Solving for p, Initial residual = 1.31435323966e-11, Final residual = 4.02739383674e-12, No Iterations 3
DICPCG:  Solving for p, Initial residual = 4.6159949322e-12, Final residual = 6.52987592242e-12, No Iterations 3
time step continuity errors : sum local = 2.43378160445e-12, global = -5.52337025925e-13, cumulative = -3.13226247333e-08
ExecutionTime = 16.575297 s  ClockTime = 16 s



volFieldValue mindomain_scalar write:
    min() of p = 0.0639708121204 at location (7.96 0.0995649406574 0.1) in cell 2999

volFieldValue mindomain_vector write:
    minMag() of U = 0.0167829391178 at location (7.96 0.0995649406574 0.1) in cell 2999

volFieldValue maxdomain_scalar write:
    max() of p = 13.5843042815 at location (0.04 0.0995649406574 0.1) in cell 29

volFieldValue maxdomain_vector write:
    maxMag() of U = 1.99072925766 at location (7.96 0.00560560819347 0.0999999999998) in cell 2970

yPlus yplus_stats write:
    patch top y+ : min = 0.0593547056549, max = 0.0944503213166, average = 0.0600544585839

Time = 996s

DILUPBiCGStab:  Solving for Ux, Initial residual = 4.41776318783e-14, Final residual = 2.69482301297e-20, No Iterations 3
DILUPBiCGStab:  Solving for Uy, Initial residual = 6.98658679238e-13, Final residual = 2.51296515968e-19, No Iterations 3
DILUPBiCGStab:  Solving for Uz, Initial residual = 1.0260197888e-05, Final residual = 1.09313005216e-12, No Iterations 3
DICPCG:  Solving for p, Initial residual = 6.19411218392e-12, Final residual = 5.89697470198e-12, No Iterations 3
DICPCG:  Solving for p, Initial residual = 6.09602387109e-12, Final residual = 4.85884297299e-12, No Iterations 3
DICPCG:  Solving for p, Initial residual = 5.69936266081e-12, Final residual = 4.57228640622e-12, No Iterations 3
time step continuity errors : sum local = 1.7929458208e-12, global = -5.91287093629e-13, cumulative = -3.13232160204e-08
ExecutionTime = 16.600144 s  ClockTime = 16 s



volFieldValue mindomain_scalar write:
    min() of p = 0.0639708121203 at location (7.96 0.0977416548528 0.1) in cell 2997

volFieldValue mindomain_vector write:
    minMag() of U = 0.0167829391178 at location (7.96 0.0995649406574 0.1) in cell 2999

volFieldValue maxdomain_scalar write:
    max() of p = 13.5843042816 at location (0.04 0.0995649406574 0.1) in cell 29

volFieldValue maxdomain_vector write:
    maxMag() of U = 1.99072925765 at location (7.96 0.00560560819347 0.0999999999998) in cell 2970

yPlus yplus_stats write:
    patch top y+ : min = 0.0593547056549, max = 0.0944503213166, average = 0.0600544585838

Time = 997s

DILUPBiCGStab:  Solving for Ux, Initial residual = 4.09992116241e-14, Final residual = 8.3928819609e-21, No Iterations 3
DILUPBiCGStab:  Solving for Uy, Initial residual = 6.79972110044e-13, Final residual = 2.49188184676e-19, No Iterations 3
DILUPBiCGStab:  Solving for Uz, Initial residual = 9.42651568591e-06, Final residual = 2.08466164491e-12, No Iterations 3
DICPCG:  Solving for p, Initial residual = 4.45370964871e-12, Final residual = 7.62211478974e-12, No Iterations 3
DICPCG:  Solving for p, Initial residual = 8.39718222283e-12, Final residual = 3.52551822163e-12, No Iterations 3
DICPCG:  Solving for p, Initial residual = 4.24933911729e-12, Final residual = 5.86050412724e-12, No Iterations 3
time step continuity errors : sum local = 2.29407563793e-12, global = -6.28538285271e-13, cumulative = -3.13238445587e-08
ExecutionTime = 16.629287 s  ClockTime = 16 s



volFieldValue mindomain_scalar write:
    min() of p = 0.0639708121201 at location (7.96 0.0977416548528 0.1) in cell 2997

volFieldValue mindomain_vector write:
    minMag() of U = 0.0167829391178 at location (7.96 0.0995649406574 0.1) in cell 2999

volFieldValue maxdomain_scalar write:
    max() of p = 13.5843042816 at location (0.04 0.0995649406574 0.1) in cell 29

volFieldValue maxdomain_vector write:
    maxMag() of U = 1.99072925765 at location (7.96 0.00560560819347 0.0999999999998) in cell 2970

yPlus yplus_stats write:
    patch top y+ : min = 0.0593547056549, max = 0.0944503213166, average = 0.0600544585838

Time = 998s

DILUPBiCGStab:  Solving for Ux, Initial residual = 3.96943611508e-14, Final residual = 3.07235544168e-20, No Iterations 3
DILUPBiCGStab:  Solving for Uy, Initial residual = 6.99520829895e-13, Final residual = 2.34933304024e-19, No Iterations 3
DILUPBiCGStab:  Solving for Uz, Initial residual = 9.77639890553e-06, Final residual = 1.18023561808e-12, No Iterations 3
DICPCG:  Solving for p, Initial residual = 5.88435359133e-12, Final residual = 4.74742830051e-12, No Iterations 3
DICPCG:  Solving for p, Initial residual = 5.20957558971e-12, Final residual = 5.49213799944e-12, No Iterations 3
DICPCG:  Solving for p, Initial residual = 6.3423375695e-12, Final residual = 3.83692963591e-12, No Iterations 3
time step continuity errors : sum local = 1.60092474684e-12, global = -6.43427598165e-13, cumulative = -3.13244879863e-08
ExecutionTime = 16.643535 s  ClockTime = 16 s



volFieldValue mindomain_scalar write:
    min() of p = 0.0639708121205 at location (7.96 0.0977416548528 0.1) in cell 2997

volFieldValue mindomain_vector write:
    minMag() of U = 0.0167829391178 at location (7.96 0.0995649406574 0.1) in cell 2999

volFieldValue maxdomain_scalar write:
    max() of p = 13.5843042816 at location (0.04 0.0995649406574 0.1) in cell 29

volFieldValue maxdomain_vector write:
    maxMag() of U = 1.99072925765 at location (7.96 0.00560560819347 0.0999999999998) in cell 2970

yPlus yplus_stats write:
    patch top y+ : min = 0.0593547056549, max = 0.0944503213166, average = 0.0600544585838

Time = 999s

DILUPBiCGStab:  Solving for Ux, Initial residual = 3.59159252788e-14, Final residual = 8.3173360768e-21, No Iterations 3
DILUPBiCGStab:  Solving for Uy, Initial residual = 5.60275172136e-13, Final residual = 2.02175597458e-19, No Iterations 3
DILUPBiCGStab:  Solving for Uz, Initial residual = 9.50491253538e-06, Final residual = 3.98492762242e-12, No Iterations 3
DICPCG:  Solving for p, Initial residual = 4.35803126744e-12, Final residual = 1.02087485062e-11, No Iterations 3
DICPCG:  Solving for p, Initial residual = 1.08722667484e-11, Final residual = 3.89528411217e-12, No Iterations 3
DICPCG:  Solving for p, Initial residual = 4.67059921077e-12, Final residual = 8.09652333864e-12, No Iterations 3
time step continuity errors : sum local = 2.99969876026e-12, global = -6.65808122406e-13, cumulative = -3.13251537944e-08
ExecutionTime = 16.65766 s  ClockTime = 16 s



volFieldValue mindomain_scalar write:
    min() of p = 0.0639708121208 at location (7.96 0.0977416548528 0.1) in cell 2997

volFieldValue mindomain_vector write:
    minMag() of U = 0.0167829391178 at location (7.96 0.0995649406574 0.1) in cell 2999

volFieldValue maxdomain_scalar write:
    max() of p = 13.5843042816 at location (0.04 0.0995649406574 0.1) in cell 29

volFieldValue maxdomain_vector write:
    maxMag() of U = 1.99072925765 at location (7.96 0.00560560819347 0.0999999999998) in cell 2970

yPlus yplus_stats write:
    patch top y+ : min = 0.0593547056549, max = 0.0944503213166, average = 0.0600544585838

Time = 1000s

DILUPBiCGStab:  Solving for Ux, Initial residual = 3.33530441042e-14, Final residual = 9.13092992046e-20, No Iterations 3
DILUPBiCGStab:  Solving for Uy, Initial residual = 8.24182237597e-13, Final residual = 2.35630397136e-19, No Iterations 3
DILUPBiCGStab:  Solving for Uz, Initial residual = 9.86687922785e-06, Final residual = 1.65185240852e-12, No Iterations 3
DICPCG:  Solving for p, Initial residual = 7.49423909247e-12, Final residual = 7.08898517691e-12, No Iterations 3
DICPCG:  Solving for p, Initial residual = 7.31140678624e-12, Final residual = 5.64871779735e-12, No Iterations 3
DICPCG:  Solving for p, Initial residual = 6.49616012498e-12, Final residual = 4.99854660186e-12, No Iterations 3
time step continuity errors : sum local = 1.92864822495e-12, global = -6.75896580941e-13, cumulative = -3.1325829691e-08
ExecutionTime = 16.684525 s  ClockTime = 16 s



volFieldValue mindomain_scalar write:
    min() of p = 0.0639708121213 at location (7.96 0.0977416548528 0.1) in cell 2997

volFieldValue mindomain_vector write:
    minMag() of U = 0.0167829391178 at location (7.96 0.0995649406574 0.1) in cell 2999

volFieldValue maxdomain_scalar write:
    max() of p = 13.5843042816 at location (0.04 0.0995649406574 0.1) in cell 29

volFieldValue maxdomain_vector write:
    maxMag() of U = 1.99072925765 at location (7.96 0.00560560819347 0.0999999999998) in cell 2970

yPlus yplus_stats write:
    patch top y+ : min = 0.0593547056549, max = 0.0944503213166, average = 0.0600544585838

End

