/*---------------------------------------------------------------------------*\
  =========                 |
  \\      /  F ield         | OpenFOAM: The Open Source CFD Toolbox
   \\    /   O peration     | Website:  https://openfoam.org
    \\  /    A nd           | Version:  12
     \\/     M anipulation  |
\*---------------------------------------------------------------------------*/
Build  : 12-86e126a7bc4d
Exec   : checkMesh
Date   : Jun 14 2026
Time   : 18:58:53
Host   : "NotebookdoDan"
PID    : 8538
I/O    : uncollated
Case   : /home/danilom/OpenFOAM/danilom-12/run/GT1/laminar
nProcs : 1
sigFpe : Enabling floating point exception trapping (FOAM_SIGFPE).
fileModificationChecking : Monitoring run-time modified files using timeStampMaster (fileModificationSkew 10)
allowSystemOperations : Allowing user-supplied system call operations

// * * * * * * * * * * * * * * * * * * * * * * * * * * * * * * * * * * * * * //
Create time

Create polyMesh for time = 0

Time = 0s

Mesh stats
    points:           6161
    internal points:  0
    faces:            12030
    internal faces:   5870
    cells:            3000
    faces per cell:   5.96666666667
    boundary patches: 5
    point zones:      0
    face zones:       0
    cell zones:       0

Overall number of cells of each type:
    hexahedra:     2900
    prisms:        100
    wedges:        0
    pyramids:      0
    tet wedges:    0
    tetrahedra:    0
    polyhedra:     0

Checking topology...
    Boundary definition OK.
    Cell to face addressing OK.
    Point usage OK.
    Upper triangular ordering OK.
    Face vertices OK.
    Number of regions: 1 (OK).

Checking patch topology for multiply connected surfaces...
    Patch               Faces    Points   Surface topology                  
    top                 100      202      ok (non-closed singly connected)  
    inlet               30       61       ok (non-closed singly connected)  
    outlet              30       61       ok (non-closed singly connected)  
    front               3000     3131     ok (non-closed singly connected)  
    back                3000     3131     ok (non-closed singly connected)  

Checking geometry...
    Overall domain bounding box (0 0 0.0982547593563) (8 0.0999847695156 0.101745240644)
    Mesh has 2 geometric (non-empty/wedge) directions (1 1 0)
    Mesh has 3 solution (non-empty) directions (1 1 1)
    Wedge front with angle 1.00000000053 degrees
    Wedge back with angle 0.99999999992 degrees
    All edges aligned with or perpendicular to non-empty directions.
    Max cell openness = 2.1340776817e-16 OK.
    Max aspect ratio = 95.5445634609 OK.
    Minimum face area = 1.23409747754e-06. Maximum face area = 0.000672775450177.  Face area magnitudes OK.
    Min volume = 9.8727798203e-08. Max volume = 6.72137010238e-07.  Total volume = 0.0013959798681.  Cell volumes OK.
    Mesh non-orthogonality Max: 0 average: 0
    Non-orthogonality check OK.
    Face pyramids OK.
    Max skewness = 0.332927218015 OK.
    Coupled point location match (average 0) OK.

Mesh OK.

End

