/*---------------------------------------------------------------------------*\
  =========                 |
  \\      /  F ield         | OpenFOAM: The Open Source CFD Toolbox
   \\    /   O peration     | Website:  https://openfoam.org
    \\  /    A nd           | Version:  12
     \\/     M anipulation  |
\*---------------------------------------------------------------------------*/
Build  : 12-86e126a7bc4d
Exec   : foamRun
Date   : Jun 15 2026
Time   : 00:08:55
Host   : "NotebookdoDan"
PID    : 117414
I/O    : uncollated
Case   : /home/danilom/OpenFOAM/danilom-12/run/GT2/RANS/KOmegaSST_lowRE_V1
nProcs : 1
sigFpe : Enabling floating point exception trapping (FOAM_SIGFPE).
fileModificationChecking : Monitoring run-time modified files using timeStampMaster (fileModificationSkew 10)
allowSystemOperations : Allowing user-supplied system call operations

// * * * * * * * * * * * * * * * * * * * * * * * * * * * * * * * * * * * * * //
Create time

Create mesh for time = 0

Selecting solver incompressibleFluid
Selecting viscosity model Newtonian
Selecting turbulence model type RAS
Selecting RAS turbulence model kOmegaSST
RAS
{
    RASModel        kOmegaSST;
    turbulence      on;
    printCoeffs     on;
    alphaK1         0.85;
    alphaK2         1;
    alphaOmega1     0.5;
    alphaOmega2     0.856;
    gamma1          0.55555556;
    gamma2          0.44;
    beta1           0.075;
    beta2           0.0828;
    betaStar        0.09;
    a1              0.31;
    b1              1;
    c1              10;
    F3              false;
}

No MRF models present

Selecting patchDistMethod meshWave

SIMPLE: Convergence criteria found
        p: tolerance 1e-06
        U: tolerance 1e-06
        "(k|omega)": tolerance 1e-06


SIMPLE: Operating solver in steady-state mode with 1 outer corrector
SIMPLE: Operating solver in SIMPLE mode



Starting time loop

    - selecting all cells
    - selected 13056 cell(s) with volume 2.33333


    - selecting all cells
    - selected 13056 cell(s) with volume 2.33333


    - selecting all cells
    - selected 13056 cell(s) with volume 2.33333


    - selecting all cells
    - selected 13056 cell(s) with volume 2.33333


    - selecting all cells
    - selected 13056 cell(s) with volume 2.33333


    - selecting all cells
    - selected 13056 cell(s) with volume 2.33333




volFieldValue mindomain_scalar write:
    min() of p = 0 at location (-0.31329649 1.0023271e-06 0.5) in cell 0
    min() of k = 0.00015 at location (-0.31329649 1.0023271e-06 0.5) in cell 0
    min() of omega = 750 at location (-0.31329649 1.0023271e-06 0.5) in cell 0
    min() of nut = 2e-07 at location (-0.31329649 1.0023271e-06 0.5) in cell 0

volFieldValue mindomain_vector write:
    minMag() of U = 1 at location (-0.31329649 1.0023271e-06 0.5) in cell 0

volFieldValue maxdomain_scalar write:
    max() of p = 0 at location (-0.31329649 1.0023271e-06 0.5) in cell 0
    max() of k = 0.00015 at location (-0.31329649 1.0023271e-06 0.5) in cell 0
    max() of omega = 750 at location (-0.31329649 1.0023271e-06 0.5) in cell 0
    max() of nut = 2e-07 at location (-0.31329649 1.0023271e-06 0.5) in cell 0

volFieldValue maxdomain_vector write:
    maxMag() of U = 1 at location (-0.31329649 1.0023271e-06 0.5) in cell 0

yPlus yplus_stats write:
    patch bottom y+ : min = 0.033619072, max = 0.033619072, average = 0.033619072

Time = 1s

DILUPBiCGStab:  Solving for Ux, Initial residual = 1, Final residual = 5.1761761e-10, No Iterations 3
DILUPBiCGStab:  Solving for Uy, Initial residual = 1, Final residual = 1.9776451e-10, No Iterations 3
DICPCG:  Solving for p, Initial residual = 1, Final residual = 0.0077565968, No Iterations 96
DICPCG:  Solving for p, Initial residual = 1.9472307e-05, Final residual = 1.8989432e-07, No Iterations 21
DICPCG:  Solving for p, Initial residual = 1.8989787e-07, Final residual = 9.4576336e-09, No Iterations 28
time step continuity errors : sum local = 6.2130692e-12, global = -7.2173929e-13, cumulative = -7.2173929e-13
DILUPBiCGStab:  Solving for omega, Initial residual = 0.01804058, Final residual = 1.0819464e-12, No Iterations 3
DILUPBiCGStab:  Solving for k, Initial residual = 1, Final residual = 2.5653566e-09, No Iterations 3
ExecutionTime = 0.218658 s  ClockTime = 0 s



volFieldValue mindomain_scalar write:
    min() of p = 2.1288579e-07 at location (1.9785208 0.94257453 0.5) in cell 13055
    min() of k = 5.5485492e-05 at location (1.9785208 0.94257453 0.5) in cell 13055
    min() of omega = 191.84568 at location (1.9785208 0.94257453 0.5) in cell 13055
    min() of nut = 7.6252679e-11 at location (0.0020059438 1.0023271e-06 0.5) in cell 24

volFieldValue mindomain_vector write:
    minMag() of U = 0.36807238 at location (1.4630191 1.0023271e-06 0.5) in cell 123

volFieldValue maxdomain_scalar write:
    max() of p = 0.00042692188 at location (0.0020059438 1.0023271e-06 0.5) in cell 24
    max() of k = 0.0012145221 at location (1.9785208 1.0023271e-06 0.5) in cell 135
    max() of omega = 15925793 at location (0.61290317 1.0023271e-06 0.5) in cell 99
    max() of nut = 3.044055e-07 at location (-0.2424113 0.94257453 0.5) in cell 12922

volFieldValue maxdomain_vector write:
    maxMag() of U = 1.0002181 at location (0.0060340464 0.0011486725 0.5) in cell 5465

yPlus yplus_stats write:
    patch bottom y+ : min = 0.095657313, max = 0.095662739, average = 0.095662477

Time = 2s

DILUPBiCGStab:  Solving for Ux, Initial residual = 0.11137915, Final residual = 3.6253152e-09, No Iterations 3
DILUPBiCGStab:  Solving for Uy, Initial residual = 0.20109751, Final residual = 2.8803852e-09, No Iterations 7
DICPCG:  Solving for p, Initial residual = 0.016699164, Final residual = 0.00015104671, No Iterations 86
DICPCG:  Solving for p, Initial residual = 0.00016360376, Final residual = 1.5236671e-06, No Iterations 65
DICPCG:  Solving for p, Initial residual = 1.5238318e-06, Final residual = 1.4532383e-08, No Iterations 72
time step continuity errors : sum local = 8.9600342e-12, global = -1.8704282e-13, cumulative = -9.0878212e-13
DILUPBiCGStab:  Solving for omega, Initial residual = 0.087656795, Final residual = 6.0784887e-13, No Iterations 3
DILUPBiCGStab:  Solving for k, Initial residual = 0.47939192, Final residual = 2.1939801e-09, No Iterations 3
ExecutionTime = 0.29973 s  ClockTime = 0 s



volFieldValue mindomain_scalar write:
    min() of p = 1.6081145e-07 at location (1.9785208 1.0023271e-06 0.5) in cell 135
    min() of k = 2.9483719e-05 at location (1.9785208 0.94257453 0.5) in cell 13055
    min() of omega = 73.156435 at location (1.9785208 0.94257453 0.5) in cell 13055
    min() of nut = 1.5812174e-11 at location (1.9785208 1.0023271e-06 0.5) in cell 135

volFieldValue mindomain_vector write:
    minMag() of U = 0.14505384 at location (0.0060340464 1.0023271e-06 0.5) in cell 25

volFieldValue maxdomain_scalar write:
    max() of p = 0.00061147171 at location (-0.0020050773 1.0023271e-06 0.5) in cell 23
    max() of k = 0.00035277621 at location (0.0060340464 5.0865428e-06 0.5) in cell 297
    max() of omega = 15925793 at location (0.61290317 1.0023271e-06 0.5) in cell 99
    max() of nut = 4.1102876e-07 at location (1.0334345 0.94257453 0.5) in cell 13033

volFieldValue maxdomain_vector write:
    maxMag() of U = 1.0004112 at location (0.0060340464 0.0011486725 0.5) in cell 5465

yPlus yplus_stats write:
    patch bottom y+ : min = 0.043559854, max = 0.043560508, average = 0.043559991

Time = 3s

DILUPBiCGStab:  Solving for Ux, Initial residual = 0.030774253, Final residual = 3.8359495e-09, No Iterations 3
DILUPBiCGStab:  Solving for Uy, Initial residual = 0.13210155, Final residual = 5.8387593e-09, No Iterations 7
DICPCG:  Solving for p, Initial residual = 0.020378084, Final residual = 0.000186564, No Iterations 88
DICPCG:  Solving for p, Initial residual = 0.00021175169, Final residual = 2.0798911e-06, No Iterations 70
DICPCG:  Solving for p, Initial residual = 2.0800542e-06, Final residual = 1.6535108e-08, No Iterations 76
time step continuity errors : sum local = 9.1200134e-12, global = 5.1005662e-13, cumulative = -3.987255e-13
DILUPBiCGStab:  Solving for omega, Initial residual = 0.0029644315, Final residual = 6.4476894e-13, No Iterations 3
DILUPBiCGStab:  Solving for k, Initial residual = 0.37239043, Final residual = 5.3733296e-09, No Iterations 3
ExecutionTime = 0.389584 s  ClockTime = 0 s



volFieldValue mindomain_scalar write:
    min() of p = -3.2098647e-05 at location (0.039562778 0.00020786057 0.5) in cell 3569
    min() of k = 1.9189296e-05 at location (1.9785208 0.94257453 0.5) in cell 13055
    min() of omega = 40.065728 at location (1.9785208 0.94257453 0.5) in cell 13055
    min() of nut = 3.3062686e-12 at location (1.9785208 1.0023271e-06 0.5) in cell 135

volFieldValue mindomain_vector write:
    minMag() of U = 0.092092487 at location (0.0060340464 1.0023271e-06 0.5) in cell 25

volFieldValue maxdomain_scalar write:
    max() of p = 0.00077930164 at location (-0.0020050773 1.0023271e-06 0.5) in cell 23
    max() of k = 0.00016615864 at location (0.0060340464 9.4750924e-06 0.5) in cell 569
    max() of omega = 15925793 at location (0.61290317 1.0023271e-06 0.5) in cell 99
    max() of nut = 4.8395929e-07 at location (1.0763929 0.94257453 0.5) in cell 13034

volFieldValue maxdomain_vector write:
    maxMag() of U = 1.0005809 at location (0.0060340464 0.0011486725 0.5) in cell 5465

yPlus yplus_stats write:
    patch bottom y+ : min = 0.01991864, max = 0.01992229, average = 0.019918851

Time = 4s

DILUPBiCGStab:  Solving for Ux, Initial residual = 0.016413423, Final residual = 4.6526066e-09, No Iterations 3
DILUPBiCGStab:  Solving for Uy, Initial residual = 0.1031171, Final residual = 3.4216884e-09, No Iterations 7
DICPCG:  Solving for p, Initial residual = 0.024426319, Final residual = 0.00023680141, No Iterations 66
DICPCG:  Solving for p, Initial residual = 0.00023735806, Final residual = 2.1503306e-06, No Iterations 75
DICPCG:  Solving for p, Initial residual = 2.1315476e-06, Final residual = 1.9619748e-08, No Iterations 41
time step continuity errors : sum local = 1.1091616e-11, global = 5.4539408e-13, cumulative = 1.4666858e-13
DILUPBiCGStab:  Solving for omega, Initial residual = 0.0007007254, Final residual = 4.835201e-13, No Iterations 3
DILUPBiCGStab:  Solving for k, Initial residual = 0.20542083, Final residual = 7.398966e-09, No Iterations 3
ExecutionTime = 0.468697 s  ClockTime = 0 s



volFieldValue mindomain_scalar write:
    min() of p = -0.00011488325 at location (0.02669699 0.00020786057 0.5) in cell 3566
    min() of k = 1.117079e-05 at location (1.2052683 1.0023271e-06 0.5) in cell 117
    min() of omega = 26.731595 at location (1.9785208 0.94257453 0.5) in cell 13055
    min() of nut = 7.0142756e-13 at location (1.2052683 1.0023271e-06 0.5) in cell 117

volFieldValue mindomain_vector write:
    minMag() of U = 0.070862161 at location (0.0060340464 1.0023271e-06 0.5) in cell 25

volFieldValue maxdomain_scalar write:
    max() of p = 0.0009745132 at location (-0.0020050773 1.0023271e-06 0.5) in cell 23
    max() of k = 0.00014901315 at location (-0.0020050773 3.0219182e-06 0.5) in cell 159
    max() of omega = 15925793 at location (0.61290317 1.0023271e-06 0.5) in cell 99
    max() of nut = 5.2224808e-07 at location (1.7637284 0.94257453 0.5) in cell 13050

volFieldValue maxdomain_vector write:
    maxMag() of U = 1.0007428 at location (0.0060340464 0.0011486725 0.5) in cell 5465

yPlus yplus_stats write:
    patch bottom y+ : min = 0.0091744922, max = 0.0091823871, average = 0.0091747333

Time = 5s

DILUPBiCGStab:  Solving for Ux, Initial residual = 0.011192991, Final residual = 5.7997045e-09, No Iterations 3
DILUPBiCGStab:  Solving for Uy, Initial residual = 0.086978582, Final residual = 3.9401611e-09, No Iterations 7
DICPCG:  Solving for p, Initial residual = 0.025199508, Final residual = 0.00024452997, No Iterations 83
DICPCG:  Solving for p, Initial residual = 0.00023387594, Final residual = 2.3062271e-06, No Iterations 79
DICPCG:  Solving for p, Initial residual = 2.3044501e-06, Final residual = 2.1965053e-08, No Iterations 76
time step continuity errors : sum local = 1.3237789e-11, global = -1.3593496e-12, cumulative = -1.212681e-12
DILUPBiCGStab:  Solving for omega, Initial residual = 0.00020883003, Final residual = 3.7199538e-13, No Iterations 3
DILUPBiCGStab:  Solving for k, Initial residual = 0.099688239, Final residual = 6.5775381e-09, No Iterations 3
ExecutionTime = 0.55058 s  ClockTime = 0 s



volFieldValue mindomain_scalar write:
    min() of p = -0.00021251463 at location (0.018321967 0.00016269684 0.5) in cell 3292
    min() of k = 2.4295737e-06 at location (1.2052683 1.0023271e-06 0.5) in cell 117
    min() of omega = 19.851715 at location (1.9785208 0.94257453 0.5) in cell 13055
    min() of nut = 1.525559e-13 at location (1.2052683 1.0023271e-06 0.5) in cell 117

volFieldValue mindomain_vector write:
    minMag() of U = 0.058901944 at location (0.0060340464 1.0023271e-06 0.5) in cell 25

volFieldValue maxdomain_scalar write:
    max() of p = 0.0011909187 at location (-0.0020050773 1.0023271e-06 0.5) in cell 23
    max() of k = 0.00014875164 at location (-0.0020050773 3.0219182e-06 0.5) in cell 159
    max() of omega = 15925793 at location (0.61290317 1.0023271e-06 0.5) in cell 99
    max() of nut = 5.4731342e-07 at location (1.9785208 0.94257453 0.5) in cell 13055

volFieldValue maxdomain_vector write:
    maxMag() of U = 1.0009087 at location (0.0060340464 0.001016732 0.5) in cell 5329

yPlus yplus_stats write:
    patch bottom y+ : min = 0.0042786339, max = 0.0042946288, average = 0.0042789383

Time = 6s

DILUPBiCGStab:  Solving for Ux, Initial residual = 0.008459638, Final residual = 7.3933958e-09, No Iterations 3
DILUPBiCGStab:  Solving for Uy, Initial residual = 0.076499534, Final residual = 3.9007532e-09, No Iterations 7
DICPCG:  Solving for p, Initial residual = 0.024709457, Final residual = 0.00017274359, No Iterations 83
DICPCG:  Solving for p, Initial residual = 0.00016319584, Final residual = 1.5310278e-06, No Iterations 64
DICPCG:  Solving for p, Initial residual = 1.5308881e-06, Final residual = 1.4842209e-08, No Iterations 78
time step continuity errors : sum local = 9.6437012e-12, global = -4.2524381e-13, cumulative = -1.6379248e-12
DILUPBiCGStab:  Solving for omega, Initial residual = 9.4795433e-05, Final residual = 2.9299161e-13, No Iterations 3
DILUPBiCGStab:  Solving for k, Initial residual = 0.061016797, Final residual = 5.6851117e-09, No Iterations 3
ExecutionTime = 0.624066 s  ClockTime = 0 s



volFieldValue mindomain_scalar write:
    min() of p = -0.00032494948 at location (0.014190747 0.00011252163 0.5) in cell 2883
    min() of k = 5.5408501e-07 at location (1.2052683 1.0023271e-06 0.5) in cell 117
    min() of omega = 15.741747 at location (1.9785208 0.94257453 0.5) in cell 13055
    min() of nut = 3.4791675e-14 at location (1.2052683 1.0023271e-06 0.5) in cell 117

volFieldValue mindomain_vector write:
    minMag() of U = 0.050885736 at location (0.0060340464 1.0023271e-06 0.5) in cell 25

volFieldValue maxdomain_scalar write:
    max() of p = 0.0014234607 at location (-0.0020050773 1.0023271e-06 0.5) in cell 23
    max() of k = 0.00014847644 at location (-0.0020050773 3.0219182e-06 0.5) in cell 159
    max() of omega = 15925793 at location (0.61290317 1.0023271e-06 0.5) in cell 99
    max() of nut = 5.6151486e-07 at location (1.9785208 0.94257453 0.5) in cell 13055

volFieldValue maxdomain_vector write:
    maxMag() of U = 1.0010338 at location (0.0060340464 0.0011486725 0.5) in cell 5465

yPlus yplus_stats write:
    patch bottom y+ : min = 0.0020432819, max = 0.002075557, average = 0.0020437359

Time = 7s

DILUPBiCGStab:  Solving for Ux, Initial residual = 0.0067491523, Final residual = 9.3622064e-09, No Iterations 3
DILUPBiCGStab:  Solving for Uy, Initial residual = 0.069498453, Final residual = 3.3031155e-09, No Iterations 7
DICPCG:  Solving for p, Initial residual = 0.023928593, Final residual = 0.00022564942, No Iterations 83
DICPCG:  Solving for p, Initial residual = 0.00021127262, Final residual = 2.0038066e-06, No Iterations 79
DICPCG:  Solving for p, Initial residual = 2.0023986e-06, Final residual = 1.6926192e-08, No Iterations 77
time step continuity errors : sum local = 1.1962479e-11, global = -7.2154196e-13, cumulative = -2.3594668e-12
DILUPBiCGStab:  Solving for omega, Initial residual = 3.5601581e-05, Final residual = 2.4781455e-13, No Iterations 3
DILUPBiCGStab:  Solving for k, Initial residual = 0.042952164, Final residual = 4.9015716e-09, No Iterations 3
ExecutionTime = 0.709596 s  ClockTime = 1 s



volFieldValue mindomain_scalar write:
    min() of p = -0.00045427699 at location (0.014190747 1.7211727e-05 0.5) in cell 979
    min() of k = 1.3897582e-07 at location (0.0060340464 1.0023271e-06 0.5) in cell 25
    min() of omega = 13.063856 at location (1.9785208 0.94257453 0.5) in cell 13055
    min() of nut = 8.726462e-15 at location (0.0060340464 1.0023271e-06 0.5) in cell 25

volFieldValue mindomain_vector write:
    minMag() of U = 0.04499705 at location (0.0060340464 1.0023271e-06 0.5) in cell 25

volFieldValue maxdomain_scalar write:
    max() of p = 0.0016699287 at location (-0.0020050773 1.0023271e-06 0.5) in cell 23
    max() of k = 0.00014819119 at location (-0.0020050773 1.0023271e-06 0.5) in cell 23
    max() of omega = 15925793 at location (0.61290317 1.0023271e-06 0.5) in cell 99
    max() of nut = 5.6756862e-07 at location (1.9785208 0.94257453 0.5) in cell 13055

volFieldValue maxdomain_vector write:
    maxMag() of U = 1.0011544 at location (0.0060340464 0.0014661282 0.5) in cell 5737

yPlus yplus_stats write:
    patch bottom y+ : min = 0.0010233159, max = 0.0010854085, average = 0.0010240644

Time = 8s

DILUPBiCGStab:  Solving for Ux, Initial residual = 0.0055696851, Final residual = 2.9861294e-09, No Iterations 3
DILUPBiCGStab:  Solving for Uy, Initial residual = 0.063280165, Final residual = 3.1337906e-09, No Iterations 7
DICPCG:  Solving for p, Initial residual = 0.022825547, Final residual = 0.00020282873, No Iterations 88
DICPCG:  Solving for p, Initial residual = 0.00018866884, Final residual = 1.8612972e-06, No Iterations 48
DICPCG:  Solving for p, Initial residual = 1.8610823e-06, Final residual = 1.5998131e-08, No Iterations 79
time step continuity errors : sum local = 1.2359891e-11, global = 3.0417794e-13, cumulative = -2.0552888e-12
DILUPBiCGStab:  Solving for omega, Initial residual = 2.5221771e-05, Final residual = 2.3953915e-13, No Iterations 3
DILUPBiCGStab:  Solving for k, Initial residual = 0.031740968, Final residual = 4.1844641e-09, No Iterations 3
ExecutionTime = 0.788764 s  ClockTime = 1 s



volFieldValue mindomain_scalar write:
    min() of p = -0.00058457289 at location (0.010095216 1.4430548e-05 0.5) in cell 842
    min() of k = 4.1761379e-08 at location (0.0060340464 1.0023271e-06 0.5) in cell 25
    min() of omega = 11.231795 at location (1.9785208 0.94257453 0.5) in cell 13055
    min() of nut = 2.6222481e-15 at location (0.0060340464 1.0023271e-06 0.5) in cell 25

volFieldValue mindomain_vector write:
    minMag() of U = 0.040427808 at location (0.0060340464 1.0023271e-06 0.5) in cell 25

volFieldValue maxdomain_scalar write:
    max() of p = 0.0019288738 at location (-0.0020050773 1.0023271e-06 0.5) in cell 23
    max() of k = 0.0001478919 at location (-0.0020050773 1.0023271e-06 0.5) in cell 23
    max() of omega = 15925793 at location (0.61290317 1.0023271e-06 0.5) in cell 99
    max() of nut = 5.6696266e-07 at location (1.9785208 0.0071609664 0.5) in cell 7615

volFieldValue maxdomain_vector write:
    maxMag() of U = 1.0012686 at location (0.0060340464 0.0014661282 0.5) in cell 5737

yPlus yplus_stats write:
    patch bottom y+ : min = 0.00056095434, max = 0.00066677982, average = 0.00056215332

Time = 9s

DILUPBiCGStab:  Solving for Ux, Initial residual = 0.0047057709, Final residual = 3.6099501e-09, No Iterations 3
DILUPBiCGStab:  Solving for Uy, Initial residual = 0.058118662, Final residual = 9.0005018e-09, No Iterations 6
DICPCG:  Solving for p, Initial residual = 0.021721651, Final residual = 0.00019104648, No Iterations 88
DICPCG:  Solving for p, Initial residual = 0.00017722698, Final residual = 1.5930776e-06, No Iterations 48
DICPCG:  Solving for p, Initial residual = 1.5929181e-06, Final residual = 1.4360392e-08, No Iterations 79
time step continuity errors : sum local = 1.2148592e-11, global = 3.53309e-13, cumulative = -1.7019798e-12
DILUPBiCGStab:  Solving for omega, Initial residual = 1.2756424e-05, Final residual = 2.4847431e-13, No Iterations 3
DILUPBiCGStab:  Solving for k, Initial residual = 0.024849782, Final residual = 3.5636851e-09, No Iterations 3
ExecutionTime = 0.869512 s  ClockTime = 1 s



volFieldValue mindomain_scalar write:
    min() of p = -0.00072975372 at location (0.010095216 1.4430548e-05 0.5) in cell 842
    min() of k = 1.6500874e-08 at location (1.0763929 1.0023271e-06 0.5) in cell 114
    min() of omega = 9.9477947 at location (1.9785208 0.94257453 0.5) in cell 13055
    min() of nut = 1.0361101e-15 at location (1.0763929 1.0023271e-06 0.5) in cell 114

volFieldValue mindomain_vector write:
    minMag() of U = 0.036751586 at location (0.0060340464 1.0023271e-06 0.5) in cell 25

volFieldValue maxdomain_scalar write:
    max() of p = 0.0021964476 at location (-0.0020050773 1.0023271e-06 0.5) in cell 23
    max() of k = 0.00014757848 at location (-0.0020050773 1.0023271e-06 0.5) in cell 23
    max() of omega = 15925793 at location (0.61290317 1.0023271e-06 0.5) in cell 99
    max() of nut = 5.622464e-07 at location (1.9785208 0.0056105328 0.5) in cell 7343

volFieldValue maxdomain_vector write:
    maxMag() of U = 1.0013512 at location (0.0060340464 0.0016563743 0.5) in cell 5873

yPlus yplus_stats write:
    patch bottom y+ : min = 0.00035260914, max = 0.00050358925, average = 0.00035423345

Time = 10s

DILUPBiCGStab:  Solving for Ux, Initial residual = 0.0040459795, Final residual = 4.2027703e-09, No Iterations 3
DILUPBiCGStab:  Solving for Uy, Initial residual = 0.053288942, Final residual = 7.1241354e-09, No Iterations 6
DICPCG:  Solving for p, Initial residual = 0.020622521, Final residual = 0.00017193078, No Iterations 88
DICPCG:  Solving for p, Initial residual = 0.00015921595, Final residual = 1.5533184e-06, No Iterations 47
DICPCG:  Solving for p, Initial residual = 1.5531823e-06, Final residual = 1.3801998e-08, No Iterations 75
time step continuity errors : sum local = 1.2802592e-11, global = 8.6028435e-13, cumulative = -8.4169548e-13
DILUPBiCGStab:  Solving for omega, Initial residual = 1.2269654e-05, Final residual = 2.427308e-13, No Iterations 3
DILUPBiCGStab:  Solving for k, Initial residual = 0.020007575, Final residual = 3.269523e-09, No Iterations 3
ExecutionTime = 0.954225 s  ClockTime = 1 s



volFieldValue mindomain_scalar write:
    min() of p = -0.0008727086 at location (0.010095216 1.1864417e-05 0.5) in cell 706
    min() of k = 8.6822991e-09 at location (1.0763929 1.0023271e-06 0.5) in cell 114
    min() of omega = 9.038516 at location (1.9785208 0.94257453 0.5) in cell 13055
    min() of nut = 5.4517218e-16 at location (1.0763929 1.0023271e-06 0.5) in cell 114

volFieldValue mindomain_vector write:
    minMag() of U = 0.033716494 at location (0.0060340464 1.0023271e-06 0.5) in cell 25

volFieldValue maxdomain_scalar write:
    max() of p = 0.0024684194 at location (-0.0020050773 1.0023271e-06 0.5) in cell 23
    max() of k = 0.00015014885 at location (0.0060340464 6.84669e-05 0.5) in cell 2337
    max() of omega = 15925793 at location (0.61290317 1.0023271e-06 0.5) in cell 99
    max() of nut = 5.5378615e-07 at location (1.9785208 0.004395784 0.5) in cell 7071

volFieldValue maxdomain_vector write:
    maxMag() of U = 1.0014731 at location (0.0060340464 0.0016563743 0.5) in cell 5873

yPlus yplus_stats write:
    patch bottom y+ : min = 0.00025577463, max = 0.00044074356, average = 0.00025774764

Time = 11s

DILUPBiCGStab:  Solving for Ux, Initial residual = 0.0035262547, Final residual = 4.7813894e-09, No Iterations 3
DILUPBiCGStab:  Solving for Uy, Initial residual = 0.049166415, Final residual = 6.6289387e-09, No Iterations 6
DICPCG:  Solving for p, Initial residual = 0.019269796, Final residual = 0.00015216869, No Iterations 88
DICPCG:  Solving for p, Initial residual = 0.00014081219, Final residual = 1.3034365e-06, No Iterations 47
DICPCG:  Solving for p, Initial residual = 1.3033333e-06, Final residual = 1.0699716e-08, No Iterations 73
time step continuity errors : sum local = 1.0885532e-11, global = 9.9658272e-14, cumulative = -7.420372e-13
DILUPBiCGStab:  Solving for omega, Initial residual = 8.9837301e-06, Final residual = 2.0750369e-13, No Iterations 3
DILUPBiCGStab:  Solving for k, Initial residual = 0.016408053, Final residual = 2.8868767e-09, No Iterations 3
ExecutionTime = 1.037997 s  ClockTime = 1 s



volFieldValue mindomain_scalar write:
    min() of p = -0.0010109094 at location (0.010095216 9.4750924e-06 0.5) in cell 570
    min() of k = 5.6229925e-09 at location (1.0763929 1.0023271e-06 0.5) in cell 114
    min() of omega = 8.3903452 at location (1.9785208 0.94257453 0.5) in cell 13055
    min() of nut = 3.5307457e-16 at location (1.0763929 1.0023271e-06 0.5) in cell 114

volFieldValue mindomain_vector write:
    minMag() of U = 0.031161418 at location (0.0060340464 1.0023271e-06 0.5) in cell 25

volFieldValue maxdomain_scalar write:
    max() of p = 0.0027402489 at location (-0.0020050773 1.0023271e-06 0.5) in cell 23
    max() of k = 0.00016162859 at location (0.0060340464 6.84669e-05 0.5) in cell 2337
    max() of omega = 15925793 at location (0.61290317 1.0023271e-06 0.5) in cell 99
    max() of nut = 5.4251043e-07 at location (1.9785208 0.0038909203 0.5) in cell 6935

volFieldValue maxdomain_vector write:
    maxMag() of U = 1.001527 at location (0.0060340464 0.0016563743 0.5) in cell 5873

yPlus yplus_stats write:
    patch bottom y+ : min = 0.00020583719, max = 0.00041336677, average = 0.00020805302

Time = 12s

DILUPBiCGStab:  Solving for Ux, Initial residual = 0.0031070425, Final residual = 5.2771351e-09, No Iterations 3
DILUPBiCGStab:  Solving for Uy, Initial residual = 0.045333808, Final residual = 6.6367413e-09, No Iterations 6
DICPCG:  Solving for p, Initial residual = 0.017669238, Final residual = 0.00017661911, No Iterations 87
DICPCG:  Solving for p, Initial residual = 0.00016354871, Final residual = 1.5154526e-06, No Iterations 48
DICPCG:  Solving for p, Initial residual = 1.5152998e-06, Final residual = 1.4505219e-08, No Iterations 78
time step continuity errors : sum local = 1.6160051e-11, global = 7.7394837e-13, cumulative = 3.1911167e-14
DILUPBiCGStab:  Solving for omega, Initial residual = 8.4396224e-06, Final residual = 1.6884643e-13, No Iterations 3
DILUPBiCGStab:  Solving for k, Initial residual = 0.013621049, Final residual = 2.213191e-09, No Iterations 3
ExecutionTime = 1.1224 s  ClockTime = 1 s



volFieldValue mindomain_scalar write:
    min() of p = -0.0011407759 at location (0.010095216 7.2269684e-06 0.5) in cell 434
    min() of k = 4.1149754e-09 at location (1.0763929 1.0023271e-06 0.5) in cell 114
    min() of omega = 7.9231396 at location (1.9785208 0.94257453 0.5) in cell 13055
    min() of nut = 2.5838434e-16 at location (1.0763929 1.0023271e-06 0.5) in cell 114

volFieldValue mindomain_vector write:
    minMag() of U = 0.028925852 at location (1.0763929 1.0023271e-06 0.5) in cell 114

volFieldValue maxdomain_scalar write:
    max() of p = 0.0030082225 at location (-0.0020050773 1.0023271e-06 0.5) in cell 23
    max() of k = 0.00017367005 at location (0.0060340464 6.84669e-05 0.5) in cell 2337
    max() of omega = 15925793 at location (0.61290317 1.0023271e-06 0.5) in cell 99
    max() of nut = 5.3037043e-07 at location (1.9785208 0.0030484842 0.5) in cell 6663

volFieldValue maxdomain_vector write:
    maxMag() of U = 1.0015245 at location (0.0060340464 0.0016563743 0.5) in cell 5873

yPlus yplus_stats write:
    patch bottom y+ : min = 0.00017608555, max = 0.00039905107, average = 0.00017848125

Time = 13s

DILUPBiCGStab:  Solving for Ux, Initial residual = 0.0027623686, Final residual = 5.6735922e-09, No Iterations 3
DILUPBiCGStab:  Solving for Uy, Initial residual = 0.041913292, Final residual = 2.2144438e-09, No Iterations 7
DICPCG:  Solving for p, Initial residual = 0.016055256, Final residual = 0.00015557008, No Iterations 87
DICPCG:  Solving for p, Initial residual = 0.0001442864, Final residual = 1.3128335e-06, No Iterations 48
DICPCG:  Solving for p, Initial residual = 1.312715e-06, Final residual = 1.2585041e-08, No Iterations 78
time step continuity errors : sum local = 1.5312207e-11, global = 6.9168941e-13, cumulative = 7.2360058e-13
DILUPBiCGStab:  Solving for omega, Initial residual = 7.2405949e-06, Final residual = 1.4106833e-13, No Iterations 3
DILUPBiCGStab:  Solving for k, Initial residual = 0.011439082, Final residual = 1.9118178e-09, No Iterations 3
ExecutionTime = 1.210961 s  ClockTime = 1 s



volFieldValue mindomain_scalar write:
    min() of p = -0.0012604418 at location (0.010095216 1.0023271e-06 0.5) in cell 26
    min() of k = 3.2326159e-09 at location (1.0763929 1.0023271e-06 0.5) in cell 114
    min() of omega = 7.5793306 at location (1.9785208 0.94257453 0.5) in cell 13055
    min() of nut = 2.029799e-16 at location (1.0763929 1.0023271e-06 0.5) in cell 114

volFieldValue mindomain_vector write:
    minMag() of U = 0.026946723 at location (1.0763929 1.0023271e-06 0.5) in cell 114

volFieldValue maxdomain_scalar write:
    max() of p = 0.0032696695 at location (-0.0020050773 1.0023271e-06 0.5) in cell 23
    max() of k = 0.00018775278 at location (0.010095216 7.7588184e-05 0.5) in cell 2474
    max() of omega = 15925793 at location (0.61290317 1.0023271e-06 0.5) in cell 99
    max() of nut = 5.1691176e-07 at location (1.9785208 0.0026983575 0.5) in cell 6527

volFieldValue maxdomain_vector write:
    maxMag() of U = 1.0016178 at location (0.0060340464 0.0018713042 0.5) in cell 6009

yPlus yplus_stats write:
    patch bottom y+ : min = 0.00015606918, max = 0.00039034015, average = 0.00015861162

Time = 14s

DILUPBiCGStab:  Solving for Ux, Initial residual = 0.00247462, Final residual = 5.9867285e-09, No Iterations 3
DILUPBiCGStab:  Solving for Uy, Initial residual = 0.038861499, Final residual = 1.7426794e-09, No Iterations 7
DICPCG:  Solving for p, Initial residual = 0.014498585, Final residual = 0.00013562863, No Iterations 87
DICPCG:  Solving for p, Initial residual = 0.00012604746, Final residual = 1.2389231e-06, No Iterations 47
DICPCG:  Solving for p, Initial residual = 1.2388222e-06, Final residual = 1.1970728e-08, No Iterations 62
time step continuity errors : sum local = 1.5855414e-11, global = -2.1306812e-12, cumulative = -1.4070806e-12
DILUPBiCGStab:  Solving for omega, Initial residual = 6.5223472e-06, Final residual = 1.2620149e-13, No Iterations 3
DILUPBiCGStab:  Solving for k, Initial residual = 0.009721805, Final residual = 1.8348563e-09, No Iterations 3
ExecutionTime = 1.281749 s  ClockTime = 1 s



volFieldValue mindomain_scalar write:
    min() of p = -0.0013686721 at location (0.010095216 1.0023271e-06 0.5) in cell 26
    min() of k = 2.6565642e-09 at location (1.0763929 1.0023271e-06 0.5) in cell 114
    min() of omega = 7.3184805 at location (1.9785208 0.94257453 0.5) in cell 13055
    min() of nut = 1.6680891e-16 at location (1.0763929 1.0023271e-06 0.5) in cell 114

volFieldValue mindomain_vector write:
    minMag() of U = 0.025199806 at location (1.0763929 1.0023271e-06 0.5) in cell 114

volFieldValue maxdomain_scalar write:
    max() of p = 0.0035224009 at location (-0.0020050773 1.0023271e-06 0.5) in cell 23
    max() of k = 0.00020367274 at location (0.010095216 7.7588184e-05 0.5) in cell 2474
    max() of omega = 15925793 at location (0.61290317 1.0023271e-06 0.5) in cell 99
    max() of nut = 5.0264527e-07 at location (1.9785208 0.0026983575 0.5) in cell 6527

volFieldValue maxdomain_vector write:
    maxMag() of U = 1.0016865 at location (0.0060340464 0.0018713042 0.5) in cell 6009

yPlus yplus_stats write:
    patch bottom y+ : min = 0.00014148169, max = 0.00038447525, average = 0.00014415272

Time = 15s

DILUPBiCGStab:  Solving for Ux, Initial residual = 0.002231338, Final residual = 6.2438086e-09, No Iterations 3
DILUPBiCGStab:  Solving for Uy, Initial residual = 0.036188673, Final residual = 6.5222014e-09, No Iterations 6
DICPCG:  Solving for p, Initial residual = 0.013073866, Final residual = 0.00011793098, No Iterations 87
DICPCG:  Solving for p, Initial residual = 0.00010987136, Final residual = 1.0228759e-06, No Iterations 47
DICPCG:  Solving for p, Initial residual = 1.0227989e-06, Final residual = 9.7973782e-09, No Iterations 60
time step continuity errors : sum local = 1.4075469e-11, global = 5.8982224e-13, cumulative = -8.1725837e-13
DILUPBiCGStab:  Solving for omega, Initial residual = 5.8212639e-06, Final residual = 1.1928745e-13, No Iterations 3
DILUPBiCGStab:  Solving for k, Initial residual = 0.0083559981, Final residual = 1.6627121e-09, No Iterations 3
ExecutionTime = 1.352205 s  ClockTime = 1 s



volFieldValue mindomain_scalar write:
    min() of p = -0.0014647366 at location (0.010095216 1.0023271e-06 0.5) in cell 26
    min() of k = 2.2532054e-09 at location (1.0763929 1.0023271e-06 0.5) in cell 114
    min() of omega = 7.113318 at location (1.9785208 0.94257453 0.5) in cell 13055
    min() of nut = 1.4148152e-16 at location (1.0763929 1.0023271e-06 0.5) in cell 114

volFieldValue mindomain_vector write:
    minMag() of U = 0.0236442 at location (1.0763929 1.0023271e-06 0.5) in cell 114

volFieldValue maxdomain_scalar write:
    max() of p = 0.0037645804 at location (-0.0020050773 1.0023271e-06 0.5) in cell 23
    max() of k = 0.00022094898 at location (0.010095216 8.786571e-05 0.5) in cell 2610
    max() of omega = 15925793 at location (0.61290317 1.0023271e-06 0.5) in cell 99
    max() of nut = 4.8643522e-07 at location (1.9785208 0.0023884425 0.5) in cell 6391

volFieldValue maxdomain_vector write:
    maxMag() of U = 1.0017182 at location (0.0060340464 0.0018713042 0.5) in cell 6009

yPlus yplus_stats write:
    patch bottom y+ : min = 0.00013029882, max = 0.00038025125, average = 0.00013308798

Time = 16s

DILUPBiCGStab:  Solving for Ux, Initial residual = 0.0020233419, Final residual = 6.4221392e-09, No Iterations 3
DILUPBiCGStab:  Solving for Uy, Initial residual = 0.033809021, Final residual = 3.9987927e-09, No Iterations 6
DICPCG:  Solving for p, Initial residual = 0.011823593, Final residual = 0.0001164201, No Iterations 86
DICPCG:  Solving for p, Initial residual = 0.0001087438, Final residual = 1.0301825e-06, No Iterations 49
DICPCG:  Solving for p, Initial residual = 1.030089e-06, Final residual = 9.8462068e-09, No Iterations 73
time step continuity errors : sum local = 1.5285704e-11, global = 6.6398886e-13, cumulative = -1.5326951e-13
DILUPBiCGStab:  Solving for omega, Initial residual = 5.2689504e-06, Final residual = 1.1586578e-13, No Iterations 3
DILUPBiCGStab:  Solving for k, Initial residual = 0.0072668454, Final residual = 1.4621237e-09, No Iterations 3
ExecutionTime = 1.439216 s  ClockTime = 1 s



volFieldValue mindomain_scalar write:
    min() of p = -0.0015486472 at location (0.010095216 1.0023271e-06 0.5) in cell 26
    min() of k = 1.9567372e-09 at location (1.0763929 1.0023271e-06 0.5) in cell 114
    min() of omega = 6.9461677 at location (1.9785208 0.94257453 0.5) in cell 13055
    min() of nut = 1.2286592e-16 at location (1.0763929 1.0023271e-06 0.5) in cell 114

volFieldValue mindomain_vector write:
    minMag() of U = 0.022248591 at location (1.0763929 1.0023271e-06 0.5) in cell 114

volFieldValue maxdomain_scalar write:
    max() of p = 0.0039959147 at location (-0.0020050773 1.0023271e-06 0.5) in cell 23
    max() of k = 0.0002412626 at location (0.010095216 8.786571e-05 0.5) in cell 2610
    max() of omega = 15925793 at location (0.61290317 1.0023271e-06 0.5) in cell 99
    max() of nut = 4.7023106e-07 at location (1.9785208 0.0023884425 0.5) in cell 6391

volFieldValue maxdomain_vector write:
    maxMag() of U = 1.0017344 at location (0.0060340464 0.0018713042 0.5) in cell 6009

yPlus yplus_stats write:
    patch bottom y+ : min = 0.0001214245, max = 0.00037705578, average = 0.00012432602

Time = 17s

DILUPBiCGStab:  Solving for Ux, Initial residual = 0.001843833, Final residual = 6.4973064e-09, No Iterations 3
DILUPBiCGStab:  Solving for Uy, Initial residual = 0.031710646, Final residual = 9.695824e-09, No Iterations 6
DICPCG:  Solving for p, Initial residual = 0.010736241, Final residual = 0.00010387554, No Iterations 85
DICPCG:  Solving for p, Initial residual = 9.7283019e-05, Final residual = 9.5681088e-07, No Iterations 51
DICPCG:  Solving for p, Initial residual = 9.5671444e-07, Final residual = 7.7204017e-09, No Iterations 81
time step continuity errors : sum local = 1.2905222e-11, global = 4.4964521e-13, cumulative = 2.963757e-13
DILUPBiCGStab:  Solving for omega, Initial residual = 4.7712252e-06, Final residual = 1.128816e-13, No Iterations 3
DILUPBiCGStab:  Solving for k, Initial residual = 0.0064023239, Final residual = 1.2721082e-09, No Iterations 3
ExecutionTime = 1.520646 s  ClockTime = 1 s



volFieldValue mindomain_scalar write:
    min() of p = -0.001621323 at location (0.010095216 1.0023271e-06 0.5) in cell 26
    min() of k = 1.7307374e-09 at location (1.0763929 1.0023271e-06 0.5) in cell 114
    min() of omega = 6.8058352 at location (1.9785208 0.94257453 0.5) in cell 13055
    min() of nut = 1.0867512e-16 at location (1.0763929 1.0023271e-06 0.5) in cell 114

volFieldValue mindomain_vector write:
    minMag() of U = 0.020988521 at location (1.0763929 1.0023271e-06 0.5) in cell 114

volFieldValue maxdomain_scalar write:
    max() of p = 0.0042167282 at location (-0.0020050773 1.0023271e-06 0.5) in cell 23
    max() of k = 0.00026405948 at location (0.010095216 8.786571e-05 0.5) in cell 2610
    max() of omega = 15925793 at location (0.61290317 1.0023271e-06 0.5) in cell 99
    max() of nut = 4.526585e-07 at location (1.9785208 0.0023884425 0.5) in cell 6391

volFieldValue maxdomain_vector write:
    maxMag() of U = 1.0016766 at location (0.0060340464 0.0018713042 0.5) in cell 6009

yPlus yplus_stats write:
    patch bottom y+ : min = 0.00011419726, max = 0.00037454165, average = 0.0001172088

Time = 18s

DILUPBiCGStab:  Solving for Ux, Initial residual = 0.0016876046, Final residual = 6.473328e-09, No Iterations 3
DILUPBiCGStab:  Solving for Uy, Initial residual = 0.029850629, Final residual = 7.5007611e-09, No Iterations 6
DICPCG:  Solving for p, Initial residual = 0.0097573271, Final residual = 9.7217785e-05, No Iterations 82
DICPCG:  Solving for p, Initial residual = 9.1277789e-05, Final residual = 8.5797095e-07, No Iterations 75
DICPCG:  Solving for p, Initial residual = 8.5780514e-07, Final residual = 9.9988828e-09, No Iterations 74
time step continuity errors : sum local = 1.7934773e-11, global = -8.061062e-13, cumulative = -5.097305e-13
DILUPBiCGStab:  Solving for omega, Initial residual = 4.3436269e-06, Final residual = 1.0832443e-13, No Iterations 3
DILUPBiCGStab:  Solving for k, Initial residual = 0.0057307061, Final residual = 1.1154816e-09, No Iterations 3
ExecutionTime = 1.602028 s  ClockTime = 1 s



volFieldValue mindomain_scalar write:
    min() of p = -0.0016827971 at location (0.010095216 1.0023271e-06 0.5) in cell 26
    min() of k = 1.5533964e-09 at location (1.0763929 1.0023271e-06 0.5) in cell 114
    min() of omega = 6.6851899 at location (1.9785208 0.94257453 0.5) in cell 13055
    min() of nut = 9.7539659e-17 at location (1.0763929 1.0023271e-06 0.5) in cell 114

volFieldValue mindomain_vector write:
    minMag() of U = 0.019844559 at location (1.0763929 1.0023271e-06 0.5) in cell 114

volFieldValue maxdomain_scalar write:
    max() of p = 0.0044271381 at location (-0.0020050773 1.0023271e-06 0.5) in cell 23
    max() of k = 0.0002932644 at location (0.014190747 9.9452634e-05 0.5) in cell 2747
    max() of omega = 15925793 at location (0.61290317 1.0023271e-06 0.5) in cell 99
    max() of nut = 4.338216e-07 at location (1.9785208 0.0023884425 0.5) in cell 6391

volFieldValue maxdomain_vector write:
    maxMag() of U = 1.0016391 at location (0.0060340464 0.0018713042 0.5) in cell 6009

yPlus yplus_stats write:
    patch bottom y+ : min = 0.00010818853, max = 0.00037249717, average = 0.00011131044

Time = 19s

DILUPBiCGStab:  Solving for Ux, Initial residual = 0.0015507311, Final residual = 6.3534029e-09, No Iterations 3
DILUPBiCGStab:  Solving for Uy, Initial residual = 0.028173634, Final residual = 5.8775515e-09, No Iterations 6
DICPCG:  Solving for p, Initial residual = 0.008895634, Final residual = 7.8898427e-05, No Iterations 81
DICPCG:  Solving for p, Initial residual = 7.4248976e-05, Final residual = 7.3246271e-07, No Iterations 67
DICPCG:  Solving for p, Initial residual = 7.3235489e-07, Final residual = 8.4638616e-09, No Iterations 75
time step continuity errors : sum local = 1.6237476e-11, global = -1.9784852e-12, cumulative = -2.4882157e-12
DILUPBiCGStab:  Solving for omega, Initial residual = 3.9662888e-06, Final residual = 1.0179574e-13, No Iterations 3
DILUPBiCGStab:  Solving for k, Initial residual = 0.0052344512, Final residual = 9.9794555e-10, No Iterations 3
ExecutionTime = 1.686697 s  ClockTime = 2 s



volFieldValue mindomain_scalar write:
    min() of p = -0.0017339847 at location (0.010095216 1.0023271e-06 0.5) in cell 26
    min() of k = 1.4109224e-09 at location (1.3771022 1.0023271e-06 0.5) in cell 121
    min() of omega = 6.5795129 at location (1.9785208 0.94257453 0.5) in cell 13055
    min() of nut = 8.8593543e-17 at location (1.3771022 1.0023271e-06 0.5) in cell 121

volFieldValue mindomain_vector write:
    minMag() of U = 0.018801039 at location (1.2911853 1.0023271e-06 0.5) in cell 119

volFieldValue maxdomain_scalar write:
    max() of p = 0.0046277261 at location (-0.0020050773 1.0023271e-06 0.5) in cell 23
    max() of k = 0.0003292152 at location (0.014190747 9.9452634e-05 0.5) in cell 2747
    max() of omega = 15925793 at location (0.61290317 1.0023271e-06 0.5) in cell 99
    max() of nut = 4.1337632e-07 at location (1.9785208 0.0023884425 0.5) in cell 6391

volFieldValue maxdomain_vector write:
    maxMag() of U = 1.0016397 at location (0.0060340464 0.0018713042 0.5) in cell 6009

yPlus yplus_stats write:
    patch bottom y+ : min = 0.00010310783, max = 0.00037078654, average = 0.00010634263

Time = 20s

DILUPBiCGStab:  Solving for Ux, Initial residual = 0.0014300355, Final residual = 6.1318808e-09, No Iterations 3
DILUPBiCGStab:  Solving for Uy, Initial residual = 0.02666572, Final residual = 4.7579359e-09, No Iterations 6
DICPCG:  Solving for p, Initial residual = 0.0081176267, Final residual = 7.4410669e-05, No Iterations 80
DICPCG:  Solving for p, Initial residual = 7.0159214e-05, Final residual = 6.8003926e-07, No Iterations 59
DICPCG:  Solving for p, Initial residual = 6.7997227e-07, Final residual = 7.3937248e-09, No Iterations 72
time step continuity errors : sum local = 1.513017e-11, global = 8.025928e-14, cumulative = -2.4079564e-12
DILUPBiCGStab:  Solving for omega, Initial residual = 3.6274663e-06, Final residual = 9.3681503e-14, No Iterations 3
DILUPBiCGStab:  Solving for k, Initial residual = 0.0049077008, Final residual = 9.1042946e-10, No Iterations 3
ExecutionTime = 1.772738 s  ClockTime = 2 s



volFieldValue mindomain_scalar write:
    min() of p = -0.001775198 at location (0.010095216 1.0023271e-06 0.5) in cell 26
    min() of k = 1.2942387e-09 at location (1.9785208 1.0023271e-06 0.5) in cell 135
    min() of omega = 6.4854838 at location (1.9785208 0.94257453 0.5) in cell 13055
    min() of nut = 8.126683e-17 at location (1.9785208 1.0023271e-06 0.5) in cell 135

volFieldValue mindomain_vector write:
    minMag() of U = 0.017845171 at location (1.3341437 1.0023271e-06 0.5) in cell 120

volFieldValue maxdomain_scalar write:
    max() of p = 0.0048190692 at location (-0.0020050773 1.0023271e-06 0.5) in cell 23
    max() of k = 0.00037350312 at location (0.014190747 9.9452634e-05 0.5) in cell 2747
    max() of omega = 15925793 at location (0.61290317 1.0023271e-06 0.5) in cell 99
    max() of nut = 3.9556117e-07 at location (1.9785208 0.0026983575 0.5) in cell 6527

volFieldValue maxdomain_vector write:
    maxMag() of U = 1.0016775 at location (0.0060340464 0.0021141207 0.5) in cell 6145

yPlus yplus_stats write:
    patch bottom y+ : min = 9.8752314e-05, max = 0.00036931915, average = 0.00010210427

Time = 21s

DILUPBiCGStab:  Solving for Ux, Initial residual = 0.0013229763, Final residual = 5.7946972e-09, No Iterations 3
DILUPBiCGStab:  Solving for Uy, Initial residual = 0.025308327, Final residual = 4.002422e-09, No Iterations 6
DICPCG:  Solving for p, Initial residual = 0.0074606885, Final residual = 5.9782977e-05, No Iterations 80
DICPCG:  Solving for p, Initial residual = 5.6450759e-05, Final residual = 5.1073747e-07, No Iterations 42
DICPCG:  Solving for p, Initial residual = 5.1071476e-07, Final residual = 9.6423928e-09, No Iterations 65
time step continuity errors : sum local = 2.1002253e-11, global = -3.7439424e-13, cumulative = -2.7823506e-12
DILUPBiCGStab:  Solving for omega, Initial residual = 3.3258172e-06, Final residual = 8.4338432e-14, No Iterations 3
DILUPBiCGStab:  Solving for k, Initial residual = 0.0047526939, Final residual = 8.3755778e-10, No Iterations 3
ExecutionTime = 1.849401 s  ClockTime = 2 s



volFieldValue mindomain_scalar write:
    min() of p = -0.0018071467 at location (0.010095216 1.0023271e-06 0.5) in cell 26
    min() of k = 1.1971846e-09 at location (1.9785208 1.0023271e-06 0.5) in cell 135
    min() of omega = 6.4006069 at location (1.9785208 0.94257453 0.5) in cell 13055
    min() of nut = 7.5172684e-17 at location (1.9785208 1.0023271e-06 0.5) in cell 135

volFieldValue mindomain_vector write:
    minMag() of U = 0.016966392 at location (1.9785208 1.0023271e-06 0.5) in cell 135

volFieldValue maxdomain_scalar write:
    max() of p = 0.0050015404 at location (-0.0020050773 1.0023271e-06 0.5) in cell 23
    max() of k = 0.00043231389 at location (0.018321967 0.00011252163 0.5) in cell 2884
    max() of omega = 15925793 at location (0.61290317 1.0023271e-06 0.5) in cell 99
    max() of nut = 3.7788331e-07 at location (1.9785208 0.0026983575 0.5) in cell 6527

volFieldValue maxdomain_vector write:
    maxMag() of U = 1.0016993 at location (0.0060340464 0.0021141207 0.5) in cell 6145

yPlus yplus_stats write:
    patch bottom y+ : min = 9.4977482e-05, max = 0.00036803266, average = 9.845231e-05

Time = 22s

DILUPBiCGStab:  Solving for Ux, Initial residual = 0.0012276254, Final residual = 5.3304077e-09, No Iterations 3
DILUPBiCGStab:  Solving for Uy, Initial residual = 0.024089927, Final residual = 3.2187162e-09, No Iterations 6
DICPCG:  Solving for p, Initial residual = 0.0068699181, Final residual = 6.5005124e-05, No Iterations 79
DICPCG:  Solving for p, Initial residual = 6.1446165e-05, Final residual = 6.0848766e-07, No Iterations 30
DICPCG:  Solving for p, Initial residual = 6.0848051e-07, Final residual = 7.4942208e-09, No Iterations 78
time step continuity errors : sum local = 1.7346386e-11, global = -4.3070371e-13, cumulative = -3.2130543e-12
DILUPBiCGStab:  Solving for omega, Initial residual = 3.0505451e-06, Final residual = 7.5752236e-14, No Iterations 3
DILUPBiCGStab:  Solving for k, Initial residual = 0.0047074066, Final residual = 7.6285369e-10, No Iterations 3
ExecutionTime = 1.924769 s  ClockTime = 2 s



volFieldValue mindomain_scalar write:
    min() of p = -0.0018299938 at location (0.010095216 1.0023271e-06 0.5) in cell 26
    min() of k = 1.1154717e-09 at location (1.9785208 1.0023271e-06 0.5) in cell 135
    min() of omega = 6.3228958 at location (1.9785208 0.94257453 0.5) in cell 13055
    min() of nut = 7.0041833e-17 at location (1.9785208 1.0023271e-06 0.5) in cell 135

volFieldValue mindomain_vector write:
    minMag() of U = 0.016155905 at location (1.9785208 1.0023271e-06 0.5) in cell 135

volFieldValue maxdomain_scalar write:
    max() of p = 0.0051757631 at location (-0.0020050773 1.0023271e-06 0.5) in cell 23
    max() of k = 0.00050364534 at location (0.018321967 0.00011252163 0.5) in cell 2884
    max() of omega = 15925793 at location (0.61290317 1.0023271e-06 0.5) in cell 99
    max() of nut = 3.6233743e-07 at location (1.9785208 0.0026983575 0.5) in cell 6527

volFieldValue maxdomain_vector write:
    maxMag() of U = 1.0016877 at location (0.0060340464 0.0021141207 0.5) in cell 6145

yPlus yplus_stats write:
    patch bottom y+ : min = 9.1678896e-05, max = 0.00036688312, average = 9.5283699e-05

Time = 23s

DILUPBiCGStab:  Solving for Ux, Initial residual = 0.0011423477, Final residual = 4.8613495e-09, No Iterations 3
DILUPBiCGStab:  Solving for Uy, Initial residual = 0.022983889, Final residual = 8.6356573e-09, No Iterations 5
DICPCG:  Solving for p, Initial residual = 0.006299638, Final residual = 5.7152768e-05, No Iterations 79
DICPCG:  Solving for p, Initial residual = 5.4070781e-05, Final residual = 4.9979993e-07, No Iterations 30
DICPCG:  Solving for p, Initial residual = 4.998067e-07, Final residual = 9.1037653e-09, No Iterations 77
time step continuity errors : sum local = 2.2361458e-11, global = 6.3022164e-13, cumulative = -2.5828327e-12
DILUPBiCGStab:  Solving for omega, Initial residual = 2.7957584e-06, Final residual = 6.991581e-14, No Iterations 3
DILUPBiCGStab:  Solving for k, Initial residual = 0.0046575, Final residual = 6.7572283e-10, No Iterations 3
ExecutionTime = 1.99953 s  ClockTime = 2 s



volFieldValue mindomain_scalar write:
    min() of p = -0.0018443062 at location (0.010095216 1.0023271e-06 0.5) in cell 26
    min() of k = 1.0460496e-09 at location (1.9785208 1.0023271e-06 0.5) in cell 135
    min() of omega = 6.2506956 at location (1.9785208 0.94257453 0.5) in cell 13055
    min() of nut = 6.5682732e-17 at location (1.9785208 1.0023271e-06 0.5) in cell 135

volFieldValue mindomain_vector write:
    minMag() of U = 0.015406316 at location (1.9785208 1.0023271e-06 0.5) in cell 135

volFieldValue maxdomain_scalar write:
    max() of p = 0.0053420627 at location (-0.0020050773 1.0023271e-06 0.5) in cell 23
    max() of k = 0.00059062635 at location (0.018321967 0.00012726745 0.5) in cell 3020
    max() of omega = 15925793 at location (0.61290317 1.0023271e-06 0.5) in cell 99
    max() of nut = 3.5158576e-07 at location (1.9785208 0.0023884425 0.5) in cell 6391

volFieldValue maxdomain_vector write:
    maxMag() of U = 1.0016644 at location (0.0060340464 0.0021141207 0.5) in cell 6145

yPlus yplus_stats write:
    patch bottom y+ : min = 8.8780222e-05, max = 0.00036583876, average = 9.252367e-05

Time = 24s

DILUPBiCGStab:  Solving for Ux, Initial residual = 0.0010657561, Final residual = 4.4636913e-09, No Iterations 3
DILUPBiCGStab:  Solving for Uy, Initial residual = 0.021989327, Final residual = 6.6335726e-09, No Iterations 5
DICPCG:  Solving for p, Initial residual = 0.0057854683, Final residual = 5.2874082e-05, No Iterations 79
DICPCG:  Solving for p, Initial residual = 5.005204e-05, Final residual = 4.3844595e-07, No Iterations 41
DICPCG:  Solving for p, Initial residual = 4.3846054e-07, Final residual = 8.7449228e-09, No Iterations 69
time step continuity errors : sum local = 2.2771973e-11, global = 3.630021e-13, cumulative = -2.2198306e-12
DILUPBiCGStab:  Solving for omega, Initial residual = 2.561717e-06, Final residual = 6.5653327e-14, No Iterations 3
DILUPBiCGStab:  Solving for k, Initial residual = 0.0046461708, Final residual = 6.1086766e-10, No Iterations 3
ExecutionTime = 2.080787 s  ClockTime = 2 s



volFieldValue mindomain_scalar write:
    min() of p = -0.0018504089 at location (0.010095216 1.0023271e-06 0.5) in cell 26
    min() of k = 9.8670315e-10 at location (1.9785208 1.0023271e-06 0.5) in cell 135
    min() of omega = 6.1825768 at location (1.9785208 0.94257453 0.5) in cell 13055
    min() of nut = 6.1956297e-17 at location (1.9785208 1.0023271e-06 0.5) in cell 135

volFieldValue mindomain_vector write:
    minMag() of U = 0.014711371 at location (1.9785208 1.0023271e-06 0.5) in cell 135

volFieldValue maxdomain_scalar write:
    max() of p = 0.0055008837 at location (-0.0020050773 1.0023271e-06 0.5) in cell 23
    max() of k = 0.00069346336 at location (0.018321967 0.00012726745 0.5) in cell 3020
    max() of omega = 15925793 at location (0.61290317 1.0023271e-06 0.5) in cell 99
    max() of nut = 3.7743498e-07 at location (1.1193514 0.00079656552 0.5) in cell 5147

volFieldValue maxdomain_vector write:
    maxMag() of U = 1.0016306 at location (0.0060340464 0.0021141207 0.5) in cell 6145

yPlus yplus_stats write:
    patch bottom y+ : min = 8.6225029e-05, max = 0.00036487612, average = 9.0117805e-05

Time = 25s

DILUPBiCGStab:  Solving for Ux, Initial residual = 0.00099670812, Final residual = 4.0860368e-09, No Iterations 3
DILUPBiCGStab:  Solving for Uy, Initial residual = 0.021105788, Final residual = 5.3096403e-09, No Iterations 5
DICPCG:  Solving for p, Initial residual = 0.005331254, Final residual = 5.2040337e-05, No Iterations 79
DICPCG:  Solving for p, Initial residual = 4.9274833e-05, Final residual = 4.4855449e-07, No Iterations 41
DICPCG:  Solving for p, Initial residual = 4.4857714e-07, Final residual = 8.6170798e-09, No Iterations 69
time step continuity errors : sum local = 2.3774992e-11, global = -1.1328958e-12, cumulative = -3.3527264e-12
DILUPBiCGStab:  Solving for omega, Initial residual = 2.3447517e-06, Final residual = 6.2852987e-14, No Iterations 3
DILUPBiCGStab:  Solving for k, Initial residual = 0.0046734053, Final residual = 5.5570141e-10, No Iterations 3
ExecutionTime = 2.154617 s  ClockTime = 2 s



volFieldValue mindomain_scalar write:
    min() of p = -0.0018490127 at location (0.010095216 1.0023271e-06 0.5) in cell 26
    min() of k = 9.3579664e-10 at location (1.9785208 1.0023271e-06 0.5) in cell 135
    min() of omega = 6.1172742 at location (1.9785208 0.94257453 0.5) in cell 13055
    min() of nut = 5.8759815e-17 at location (1.9785208 1.0023271e-06 0.5) in cell 135

volFieldValue mindomain_vector write:
    minMag() of U = 0.014065755 at location (1.9785208 1.0023271e-06 0.5) in cell 135

volFieldValue maxdomain_scalar write:
    max() of p = 0.0056532918 at location (-0.0020050773 1.0023271e-06 0.5) in cell 23
    max() of k = 0.00081111899 at location (0.018321967 0.00012726745 0.5) in cell 3020
    max() of omega = 15925793 at location (0.61290317 1.0023271e-06 0.5) in cell 99
    max() of nut = 4.2811947e-07 at location (1.1193514 0.00089994316 0.5) in cell 5283

volFieldValue maxdomain_vector write:
    maxMag() of U = 1.0015893 at location (0.0060340464 0.0021141207 0.5) in cell 6145

yPlus yplus_stats write:
    patch bottom y+ : min = 8.3971292e-05, max = 0.00036397749, average = 8.8026615e-05

Time = 26s

DILUPBiCGStab:  Solving for Ux, Initial residual = 0.00093428448, Final residual = 3.7521908e-09, No Iterations 3
DILUPBiCGStab:  Solving for Uy, Initial residual = 0.020349229, Final residual = 4.3836395e-09, No Iterations 5
DICPCG:  Solving for p, Initial residual = 0.00492399, Final residual = 4.7306223e-05, No Iterations 80
DICPCG:  Solving for p, Initial residual = 4.4797614e-05, Final residual = 3.8685392e-07, No Iterations 63
DICPCG:  Solving for p, Initial residual = 3.8687196e-07, Final residual = 9.9335622e-09, No Iterations 68
time step continuity errors : sum local = 2.9026847e-11, global = 7.1269595e-13, cumulative = -2.6400304e-12
DILUPBiCGStab:  Solving for omega, Initial residual = 2.1424464e-06, Final residual = 6.2062646e-14, No Iterations 3
DILUPBiCGStab:  Solving for k, Initial residual = 0.0047107594, Final residual = 5.101103e-10, No Iterations 3
ExecutionTime = 2.229438 s  ClockTime = 2 s



volFieldValue mindomain_scalar write:
    min() of p = -0.0018404217 at location (0.010095216 1.0023271e-06 0.5) in cell 26
    min() of k = 8.9211254e-10 at location (1.9785208 1.0023271e-06 0.5) in cell 135
    min() of omega = 6.0536577 at location (1.9785208 0.94257453 0.5) in cell 13055
    min() of nut = 5.6016837e-17 at location (1.9785208 1.0023271e-06 0.5) in cell 135

volFieldValue mindomain_vector write:
    minMag() of U = 0.013464928 at location (1.9785208 1.0023271e-06 0.5) in cell 135

volFieldValue maxdomain_scalar write:
    max() of p = 0.0057996169 at location (-0.0020050773 1.0023271e-06 0.5) in cell 23
    max() of k = 0.00094319184 at location (0.018321967 0.00012726745 0.5) in cell 3020
    max() of omega = 15925793 at location (0.61290317 1.0023271e-06 0.5) in cell 99
    max() of nut = 4.8313009e-07 at location (1.1623099 0.001016732 0.5) in cell 5420

volFieldValue maxdomain_vector write:
    maxMag() of U = 1.0015566 at location (0.0060340464 0.0021141207 0.5) in cell 6145

yPlus yplus_stats write:
    patch bottom y+ : min = 8.1987929e-05, max = 0.00036312914, average = 8.6222041e-05

Time = 27s

DILUPBiCGStab:  Solving for Ux, Initial residual = 0.00087766292, Final residual = 3.501126e-09, No Iterations 3
DILUPBiCGStab:  Solving for Uy, Initial residual = 0.019688414, Final residual = 3.8167503e-09, No Iterations 5
DICPCG:  Solving for p, Initial residual = 0.0045593064, Final residual = 4.270453e-05, No Iterations 85
DICPCG:  Solving for p, Initial residual = 4.0452526e-05, Final residual = 3.9058448e-07, No Iterations 40
DICPCG:  Solving for p, Initial residual = 3.9059318e-07, Final residual = 8.2081327e-09, No Iterations 64
time step continuity errors : sum local = 2.5388653e-11, global = 5.905301e-13, cumulative = -2.0495003e-12
DILUPBiCGStab:  Solving for omega, Initial residual = 1.9525787e-06, Final residual = 6.3301599e-14, No Iterations 3
DILUPBiCGStab:  Solving for k, Initial residual = 0.0046864373, Final residual = 4.7301589e-10, No Iterations 3
ExecutionTime = 2.296247 s  ClockTime = 2 s



volFieldValue mindomain_scalar write:
    min() of p = -0.0018256944 at location (0.010095216 1.0023271e-06 0.5) in cell 26
    min() of k = 8.5475068e-10 at location (1.9785208 1.0023271e-06 0.5) in cell 135
    min() of omega = 5.9907315 at location (1.9785208 0.94257453 0.5) in cell 13055
    min() of nut = 5.3670841e-17 at location (1.9785208 1.0023271e-06 0.5) in cell 135

volFieldValue mindomain_vector write:
    minMag() of U = 0.012905003 at location (1.9785208 1.0023271e-06 0.5) in cell 135

volFieldValue maxdomain_scalar write:
    max() of p = 0.0059401835 at location (-0.0020050773 1.0023271e-06 0.5) in cell 23
    max() of k = 0.0010886562 at location (0.018321967 0.00012726745 0.5) in cell 3020
    max() of omega = 15925793 at location (0.61290317 1.0023271e-06 0.5) in cell 99
    max() of nut = 5.4474844e-07 at location (1.1623099 0.001016732 0.5) in cell 5420

volFieldValue maxdomain_vector write:
    maxMag() of U = 1.0015289 at location (0.0060340464 0.0021141207 0.5) in cell 6145

yPlus yplus_stats write:
    patch bottom y+ : min = 8.0252731e-05, max = 0.00036232038, average = 8.4685353e-05

Time = 28s

DILUPBiCGStab:  Solving for Ux, Initial residual = 0.00082616582, Final residual = 3.3486762e-09, No Iterations 3
DILUPBiCGStab:  Solving for Uy, Initial residual = 0.019121629, Final residual = 3.5799791e-09, No Iterations 5
DICPCG:  Solving for p, Initial residual = 0.0042075338, Final residual = 3.3388719e-05, No Iterations 86
DICPCG:  Solving for p, Initial residual = 3.1647284e-05, Final residual = 3.1378184e-07, No Iterations 39
DICPCG:  Solving for p, Initial residual = 3.1378475e-07, Final residual = 7.8858289e-09, No Iterations 65
time step continuity errors : sum local = 2.5798633e-11, global = -1.254072e-13, cumulative = -2.1749075e-12
DILUPBiCGStab:  Solving for omega, Initial residual = 1.7733748e-06, Final residual = 6.6282919e-14, No Iterations 3
DILUPBiCGStab:  Solving for k, Initial residual = 0.0045938864, Final residual = 4.4158802e-10, No Iterations 3
ExecutionTime = 2.362456 s  ClockTime = 2 s



volFieldValue mindomain_scalar write:
    min() of p = -0.0018050679 at location (0.010095216 1.0023271e-06 0.5) in cell 26
    min() of k = 8.2306246e-10 at location (1.9785208 1.0023271e-06 0.5) in cell 135
    min() of omega = 5.927656 at location (1.9785208 0.94257453 0.5) in cell 13055
    min() of nut = 5.1681098e-17 at location (1.9785208 1.0023271e-06 0.5) in cell 135

volFieldValue mindomain_vector write:
    minMag() of U = 0.012382643 at location (1.9785208 1.0023271e-06 0.5) in cell 135

volFieldValue maxdomain_scalar write:
    max() of p = 0.0060754115 at location (-0.0020050773 1.0023271e-06 0.5) in cell 23
    max() of k = 0.0012459454 at location (0.018321967 0.00012726745 0.5) in cell 3020
    max() of omega = 15925793 at location (0.61290317 1.0023271e-06 0.5) in cell 99
    max() of nut = 6.1146013e-07 at location (1.1623099 0.0011486725 0.5) in cell 5556

volFieldValue maxdomain_vector write:
    maxMag() of U = 1.0014997 at location (0.0060340464 0.0021141207 0.5) in cell 6145

yPlus yplus_stats write:
    patch bottom y+ : min = 7.8751075e-05, max = 0.00036154274, average = 8.3405927e-05

Time = 29s

DILUPBiCGStab:  Solving for Ux, Initial residual = 0.00077917842, Final residual = 3.2763463e-09, No Iterations 3
DILUPBiCGStab:  Solving for Uy, Initial residual = 0.018618679, Final residual = 2.861644e-09, No Iterations 5
DICPCG:  Solving for p, Initial residual = 0.0038945841, Final residual = 3.1193335e-05, No Iterations 86
DICPCG:  Solving for p, Initial residual = 2.9591805e-05, Final residual = 2.8531543e-07, No Iterations 33
DICPCG:  Solving for p, Initial residual = 2.8531748e-07, Final residual = 8.8108265e-09, No Iterations 71
time step continuity errors : sum local = 3.0455475e-11, global = 6.2529429e-13, cumulative = -1.5496132e-12
DILUPBiCGStab:  Solving for omega, Initial residual = 1.6038902e-06, Final residual = 7.0375704e-14, No Iterations 3
DILUPBiCGStab:  Solving for k, Initial residual = 0.0044453968, Final residual = 4.2002493e-10, No Iterations 3
ExecutionTime = 2.441879 s  ClockTime = 2 s



volFieldValue mindomain_scalar write:
    min() of p = -0.0017791533 at location (0.010095216 1.0023271e-06 0.5) in cell 26
    min() of k = 7.966052e-10 at location (1.9785208 1.0023271e-06 0.5) in cell 135
    min() of omega = 5.8637856 at location (1.9785208 0.94257453 0.5) in cell 13055
    min() of nut = 5.0019814e-17 at location (1.9785208 1.0023271e-06 0.5) in cell 135

volFieldValue mindomain_vector write:
    minMag() of U = 0.011894977 at location (1.9785208 1.0023271e-06 0.5) in cell 135

volFieldValue maxdomain_scalar write:
    max() of p = 0.006205961 at location (-0.0020050773 1.0023271e-06 0.5) in cell 23
    max() of k = 0.0014135597 at location (0.018321967 0.00012726745 0.5) in cell 3020
    max() of omega = 15925793 at location (0.61290317 1.0023271e-06 0.5) in cell 99
    max() of nut = 6.8441442e-07 at location (1.1623099 0.0011486725 0.5) in cell 5556

volFieldValue maxdomain_vector write:
    maxMag() of U = 1.0014646 at location (0.0060340464 0.0021141207 0.5) in cell 6145

yPlus yplus_stats write:
    patch bottom y+ : min = 7.7475013e-05, max = 0.00036078941, average = 8.2380445e-05

Time = 30s

DILUPBiCGStab:  Solving for Ux, Initial residual = 0.00073620118, Final residual = 3.2471519e-09, No Iterations 3
DILUPBiCGStab:  Solving for Uy, Initial residual = 0.018170397, Final residual = 5.5997567e-09, No Iterations 5
DICPCG:  Solving for p, Initial residual = 0.0036172439, Final residual = 2.862032e-05, No Iterations 86
DICPCG:  Solving for p, Initial residual = 2.7175328e-05, Final residual = 2.512526e-07, No Iterations 33
DICPCG:  Solving for p, Initial residual = 2.5125402e-07, Final residual = 9.2977397e-09, No Iterations 70
time step continuity errors : sum local = 3.3920807e-11, global = 3.8935569e-13, cumulative = -1.1602576e-12
DILUPBiCGStab:  Solving for omega, Initial residual = 1.4467636e-06, Final residual = 7.4490393e-14, No Iterations 3
DILUPBiCGStab:  Solving for k, Initial residual = 0.0042618147, Final residual = 4.0890371e-10, No Iterations 3
ExecutionTime = 2.505308 s  ClockTime = 2 s



volFieldValue mindomain_scalar write:
    min() of p = -0.0017486305 at location (0.010095216 1.0023271e-06 0.5) in cell 26
    min() of k = 7.7510854e-10 at location (1.9785208 1.0023271e-06 0.5) in cell 135
    min() of omega = 5.7987152 at location (1.9785208 0.94257453 0.5) in cell 13055
    min() of nut = 4.8670013e-17 at location (1.9785208 1.0023271e-06 0.5) in cell 135

volFieldValue mindomain_vector write:
    minMag() of U = 0.011439532 at location (1.9785208 1.0023271e-06 0.5) in cell 135

volFieldValue maxdomain_scalar write:
    max() of p = 0.0063315461 at location (-0.0020050773 1.0023271e-06 0.5) in cell 23
    max() of k = 0.0015903525 at location (0.022490245 0.00012726745 0.5) in cell 3021
    max() of omega = 15925793 at location (0.61290317 1.0023271e-06 0.5) in cell 99
    max() of nut = 7.6322349e-07 at location (1.2482268 0.0012977308 0.5) in cell 5694

volFieldValue maxdomain_vector write:
    maxMag() of U = 1.0014376 at location (0.0060340464 0.0021141207 0.5) in cell 6145

yPlus yplus_stats write:
    patch bottom y+ : min = 7.642252e-05, max = 0.00036005487, average = 8.1612234e-05

Time = 31s

DILUPBiCGStab:  Solving for Ux, Initial residual = 0.00069680041, Final residual = 3.2371801e-09, No Iterations 3
DILUPBiCGStab:  Solving for Uy, Initial residual = 0.017755353, Final residual = 6.3719033e-09, No Iterations 5
DICPCG:  Solving for p, Initial residual = 0.0033642875, Final residual = 2.6150763e-05, No Iterations 86
DICPCG:  Solving for p, Initial residual = 2.4852867e-05, Final residual = 2.2439749e-07, No Iterations 33
DICPCG:  Solving for p, Initial residual = 2.2439848e-07, Final residual = 8.0282095e-09, No Iterations 70
time step continuity errors : sum local = 3.0879673e-11, global = 4.0652158e-13, cumulative = -7.5373597e-13
DILUPBiCGStab:  Solving for omega, Initial residual = 1.3045329e-06, Final residual = 7.8140799e-14, No Iterations 3
DILUPBiCGStab:  Solving for k, Initial residual = 0.0040620647, Final residual = 4.0509029e-10, No Iterations 3
ExecutionTime = 2.574534 s  ClockTime = 2 s



volFieldValue mindomain_scalar write:
    min() of p = -0.0017139031 at location (0.010095216 1.0023271e-06 0.5) in cell 26
    min() of k = 7.584486e-10 at location (1.9785208 1.0023271e-06 0.5) in cell 135
    min() of omega = 5.7323247 at location (1.9785208 0.94257453 0.5) in cell 13055
    min() of nut = 4.7623915e-17 at location (1.9785208 1.0023271e-06 0.5) in cell 135

volFieldValue mindomain_vector write:
    minMag() of U = 0.011014172 at location (1.9785208 1.0023271e-06 0.5) in cell 135

volFieldValue maxdomain_scalar write:
    max() of p = 0.0064517126 at location (-0.0020050773 1.0023271e-06 0.5) in cell 23
    max() of k = 0.0017736211 at location (0.022490245 0.00012726745 0.5) in cell 3021
    max() of omega = 15925793 at location (0.61290317 1.0023271e-06 0.5) in cell 99
    max() of nut = 8.4809498e-07 at location (1.2052683 0.0012977308 0.5) in cell 5693

volFieldValue maxdomain_vector write:
    maxMag() of U = 1.001398 at location (0.0060340464 0.0021141207 0.5) in cell 6145

yPlus yplus_stats write:
    patch bottom y+ : min = 7.5596758e-05, max = 0.00035933453, average = 8.1110558e-05

Time = 32s

DILUPBiCGStab:  Solving for Ux, Initial residual = 0.00066056913, Final residual = 3.2509471e-09, No Iterations 3
DILUPBiCGStab:  Solving for Uy, Initial residual = 0.017373343, Final residual = 6.4489538e-09, No Iterations 5
DICPCG:  Solving for p, Initial residual = 0.0031514963, Final residual = 2.3774278e-05, No Iterations 86
DICPCG:  Solving for p, Initial residual = 2.2612126e-05, Final residual = 2.2303616e-07, No Iterations 32
DICPCG:  Solving for p, Initial residual = 2.2303681e-07, Final residual = 9.2807564e-09, No Iterations 69
time step continuity errors : sum local = 3.7599859e-11, global = 1.2037984e-12, cumulative = 4.5006243e-13
DILUPBiCGStab:  Solving for omega, Initial residual = 1.1733589e-06, Final residual = 8.1085213e-14, No Iterations 3
DILUPBiCGStab:  Solving for k, Initial residual = 0.0038614746, Final residual = 4.0760209e-10, No Iterations 3
ExecutionTime = 2.643954 s  ClockTime = 2 s



volFieldValue mindomain_scalar write:
    min() of p = -0.0016748887 at location (0.010095216 1.0023271e-06 0.5) in cell 26
    min() of k = 7.4662722e-10 at location (1.9785208 1.0023271e-06 0.5) in cell 135
    min() of omega = 5.6648116 at location (1.9785208 0.94257453 0.5) in cell 13055
    min() of nut = 4.6881636e-17 at location (1.9785208 1.0023271e-06 0.5) in cell 135

volFieldValue mindomain_vector write:
    minMag() of U = 0.010617042 at location (1.9785208 1.0023271e-06 0.5) in cell 135

volFieldValue maxdomain_scalar write:
    max() of p = 0.0065671719 at location (-0.0020050773 1.0023271e-06 0.5) in cell 23
    max() of k = 0.0019602605 at location (0.018321967 0.00012726745 0.5) in cell 3020
    max() of omega = 15925793 at location (0.61290317 1.0023271e-06 0.5) in cell 99
    max() of nut = 9.3914504e-07 at location (1.2911853 0.0014661282 0.5) in cell 5831

volFieldValue maxdomain_vector write:
    maxMag() of U = 1.0013627 at location (0.0060340464 0.0021141207 0.5) in cell 6145

yPlus yplus_stats write:
    patch bottom y+ : min = 7.5005309e-05, max = 0.00035862459, average = 8.0889732e-05

Time = 33s

DILUPBiCGStab:  Solving for Ux, Initial residual = 0.00062726665, Final residual = 3.3053175e-09, No Iterations 3
DILUPBiCGStab:  Solving for Uy, Initial residual = 0.017029133, Final residual = 4.666106e-09, No Iterations 5
DICPCG:  Solving for p, Initial residual = 0.0029680234, Final residual = 2.8981918e-05, No Iterations 85
DICPCG:  Solving for p, Initial residual = 2.7587025e-05, Final residual = 2.7259995e-07, No Iterations 34
DICPCG:  Solving for p, Initial residual = 2.7260103e-07, Final residual = 8.4094738e-09, No Iterations 71
time step continuity errors : sum local = 3.5852175e-11, global = -4.3565798e-13, cumulative = 1.4404454e-14
DILUPBiCGStab:  Solving for omega, Initial residual = 1.0511845e-06, Final residual = 8.3445931e-14, No Iterations 3
DILUPBiCGStab:  Solving for k, Initial residual = 0.0036655169, Final residual = 4.1593849e-10, No Iterations 3
ExecutionTime = 2.712711 s  ClockTime = 3 s



volFieldValue mindomain_scalar write:
    min() of p = -0.0016317304 at location (0.010095216 1.0023271e-06 0.5) in cell 26
    min() of k = 7.3975405e-10 at location (1.9785208 1.0023271e-06 0.5) in cell 135
    min() of omega = 5.5966992 at location (1.9785208 0.94257453 0.5) in cell 13055
    min() of nut = 4.6450061e-17 at location (1.9785208 1.0023271e-06 0.5) in cell 135

volFieldValue mindomain_vector write:
    minMag() of U = 0.010246523 at location (1.9785208 1.0023271e-06 0.5) in cell 135

volFieldValue maxdomain_scalar write:
    max() of p = 0.0066787814 at location (-0.0020050773 1.0023271e-06 0.5) in cell 23
    max() of k = 0.0021496902 at location (0.018321967 0.00012726745 0.5) in cell 3020
    max() of omega = 15925793 at location (0.61290317 1.0023271e-06 0.5) in cell 99
    max() of nut = 1.0374295e-06 at location (1.2911853 0.0014661282 0.5) in cell 5831

volFieldValue maxdomain_vector write:
    maxMag() of U = 1.0013085 at location (0.0060340464 0.0021141207 0.5) in cell 6145

yPlus yplus_stats write:
    patch bottom y+ : min = 7.4659275e-05, max = 0.00035792181, average = 8.0967946e-05

Time = 34s

DILUPBiCGStab:  Solving for Ux, Initial residual = 0.00059663128, Final residual = 3.4002917e-09, No Iterations 3
DILUPBiCGStab:  Solving for Uy, Initial residual = 0.016724057, Final residual = 2.4128377e-09, No Iterations 5
DICPCG:  Solving for p, Initial residual = 0.0028071176, Final residual = 2.6008788e-05, No Iterations 85
DICPCG:  Solving for p, Initial residual = 2.4776932e-05, Final residual = 2.3586012e-07, No Iterations 34
DICPCG:  Solving for p, Initial residual = 2.3586057e-07, Final residual = 9.4670166e-09, No Iterations 68
time step continuity errors : sum local = 4.2432838e-11, global = 7.3743259e-13, cumulative = 7.5183705e-13
DILUPBiCGStab:  Solving for omega, Initial residual = 9.4161552e-07, Final residual = 8.5563811e-14, No Iterations 3
DILUPBiCGStab:  Solving for k, Initial residual = 0.0034830067, Final residual = 4.2905809e-10, No Iterations 3
ExecutionTime = 2.77982 s  ClockTime = 3 s



volFieldValue mindomain_scalar write:
    min() of p = -0.001584756 at location (0.010095216 1.0023271e-06 0.5) in cell 26
    min() of k = 7.3802949e-10 at location (1.9785208 1.0023271e-06 0.5) in cell 135
    min() of omega = 5.5288141 at location (1.9785208 0.94257453 0.5) in cell 13055
    min() of nut = 4.6341774e-17 at location (1.9785208 1.0023271e-06 0.5) in cell 135

volFieldValue mindomain_vector write:
    minMag() of U = 0.009901178 at location (1.9785208 1.0023271e-06 0.5) in cell 135

volFieldValue maxdomain_scalar write:
    max() of p = 0.0067865938 at location (-0.0020050773 1.0023271e-06 0.5) in cell 23
    max() of k = 0.0023316755 at location (0.018321967 0.00012726745 0.5) in cell 3020
    max() of omega = 15925793 at location (0.61290317 1.0023271e-06 0.5) in cell 99
    max() of nut = 1.1418765e-06 at location (1.3341437 0.0014661282 0.5) in cell 5832

volFieldValue maxdomain_vector write:
    maxMag() of U = 1.0012707 at location (0.0060340464 0.0021141207 0.5) in cell 6145

yPlus yplus_stats write:
    patch bottom y+ : min = 7.4572199e-05, max = 0.00035722346, average = 8.1365737e-05

Time = 35s

DILUPBiCGStab:  Solving for Ux, Initial residual = 0.00056841464, Final residual = 3.4805742e-09, No Iterations 3
DILUPBiCGStab:  Solving for Uy, Initial residual = 0.016434516, Final residual = 5.8011261e-09, No Iterations 5
DICPCG:  Solving for p, Initial residual = 0.0026561285, Final residual = 2.364136e-05, No Iterations 85
DICPCG:  Solving for p, Initial residual = 2.2540495e-05, Final residual = 2.0717041e-07, No Iterations 34
DICPCG:  Solving for p, Initial residual = 2.0717058e-07, Final residual = 8.122175e-09, No Iterations 68
time step continuity errors : sum local = 3.8237945e-11, global = 1.1873234e-12, cumulative = 1.9391604e-12
DILUPBiCGStab:  Solving for omega, Initial residual = 8.449513e-07, Final residual = 8.767627e-14, No Iterations 3
DILUPBiCGStab:  Solving for k, Initial residual = 0.0033124255, Final residual = 4.4533161e-10, No Iterations 3
ExecutionTime = 2.848336 s  ClockTime = 3 s



volFieldValue mindomain_scalar write:
    min() of p = -0.0015341556 at location (0.010095216 1.0023271e-06 0.5) in cell 26
    min() of k = 7.4172675e-10 at location (1.9785208 1.0023271e-06 0.5) in cell 135
    min() of omega = 5.4622255 at location (1.9785208 0.94257453 0.5) in cell 13055
    min() of nut = 4.657393e-17 at location (1.9785208 1.0023271e-06 0.5) in cell 135

volFieldValue mindomain_vector write:
    minMag() of U = 0.0095797146 at location (1.9785208 1.0023271e-06 0.5) in cell 135

volFieldValue maxdomain_scalar write:
    max() of p = 0.0068908965 at location (-0.0020050773 1.0023271e-06 0.5) in cell 23
    max() of k = 0.002506698 at location (0.018321967 0.00011252163 0.5) in cell 2884
    max() of omega = 15925793 at location (0.61290317 1.0023271e-06 0.5) in cell 99
    max() of nut = 1.2545874e-06 at location (1.3771022 0.0016563743 0.5) in cell 5969

volFieldValue maxdomain_vector write:
    maxMag() of U = 1.0012211 at location (0.010095216 0.0021141207 0.5) in cell 6146

yPlus yplus_stats write:
    patch bottom y+ : min = 7.4758756e-05, max = 0.00035652717, average = 8.210411e-05

Time = 36s

DILUPBiCGStab:  Solving for Ux, Initial residual = 0.00054234244, Final residual = 3.557224e-09, No Iterations 3
DILUPBiCGStab:  Solving for Uy, Initial residual = 0.016163288, Final residual = 3.3874752e-09, No Iterations 5
DICPCG:  Solving for p, Initial residual = 0.0025368547, Final residual = 2.1486448e-05, No Iterations 85
DICPCG:  Solving for p, Initial residual = 2.0502379e-05, Final residual = 2.0091504e-07, No Iterations 33
DICPCG:  Solving for p, Initial residual = 2.0091497e-07, Final residual = 9.526274e-09, No Iterations 69
time step continuity errors : sum local = 4.7064062e-11, global = 1.1930201e-12, cumulative = 3.1321805e-12
DILUPBiCGStab:  Solving for omega, Initial residual = 7.6524499e-07, Final residual = 8.9557495e-14, No Iterations 3
DILUPBiCGStab:  Solving for k, Initial residual = 0.0031573683, Final residual = 4.6356206e-10, No Iterations 3
ExecutionTime = 2.905111 s  ClockTime = 3 s



volFieldValue mindomain_scalar write:
    min() of p = -0.0014803488 at location (0.010095216 1.0023271e-06 0.5) in cell 26
    min() of k = 7.5117191e-10 at location (1.9785208 1.0023271e-06 0.5) in cell 135
    min() of omega = 5.3981514 at location (1.9785208 0.94257453 0.5) in cell 13055
    min() of nut = 4.7167003e-17 at location (1.9785208 1.0023271e-06 0.5) in cell 135

volFieldValue mindomain_vector write:
    minMag() of U = 0.009280942 at location (1.9785208 1.0023271e-06 0.5) in cell 135

volFieldValue maxdomain_scalar write:
    max() of p = 0.0069912603 at location (-0.0020050773 1.0023271e-06 0.5) in cell 23
    max() of k = 0.0026703264 at location (0.018321967 0.00011252163 0.5) in cell 2884
    max() of omega = 15925793 at location (0.61290317 1.0023271e-06 0.5) in cell 99
    max() of nut = 1.3757406e-06 at location (1.4200607 0.0016563743 0.5) in cell 5970

volFieldValue maxdomain_vector write:
    maxMag() of U = 1.0011929 at location (0.010095216 0.0021141207 0.5) in cell 6146

yPlus yplus_stats write:
    patch bottom y+ : min = 7.5233239e-05, max = 0.00035583104, average = 8.3202406e-05

Time = 37s

DILUPBiCGStab:  Solving for Ux, Initial residual = 0.00051825891, Final residual = 3.6320172e-09, No Iterations 3
DILUPBiCGStab:  Solving for Uy, Initial residual = 0.015907359, Final residual = 2.4742267e-09, No Iterations 5
DICPCG:  Solving for p, Initial residual = 0.0024436126, Final residual = 1.9592425e-05, No Iterations 85
DICPCG:  Solving for p, Initial residual = 1.8709958e-05, Final residual = 1.780488e-07, No Iterations 33
DICPCG:  Solving for p, Initial residual = 1.7804864e-07, Final residual = 8.6131232e-09, No Iterations 69
time step continuity errors : sum local = 4.4615076e-11, global = 7.3022708e-13, cumulative = 3.8624076e-12
DILUPBiCGStab:  Solving for omega, Initial residual = 6.9820008e-07, Final residual = 9.1427143e-14, No Iterations 3
DILUPBiCGStab:  Solving for k, Initial residual = 0.0030102902, Final residual = 4.8299591e-10, No Iterations 3
ExecutionTime = 2.964948 s  ClockTime = 3 s



volFieldValue mindomain_scalar write:
    min() of p = -0.001423344 at location (0.010095216 1.0023271e-06 0.5) in cell 26
    min() of k = 7.6672177e-10 at location (1.9785208 1.0023271e-06 0.5) in cell 135
    min() of omega = 5.3378374 at location (1.9785208 0.94257453 0.5) in cell 13055
    min() of nut = 4.8143397e-17 at location (1.9785208 1.0023271e-06 0.5) in cell 135

volFieldValue mindomain_vector write:
    minMag() of U = 0.0090037404 at location (1.9785208 1.0023271e-06 0.5) in cell 135

volFieldValue maxdomain_scalar write:
    max() of p = 0.0070888952 at location (-0.0020050773 1.0023271e-06 0.5) in cell 23
    max() of k = 0.00282379 at location (0.018321967 0.00011252163 0.5) in cell 2884
    max() of omega = 15925793 at location (0.61290317 1.0023271e-06 0.5) in cell 99
    max() of nut = 1.5043926e-06 at location (1.4200607 0.0016563743 0.5) in cell 5970

volFieldValue maxdomain_vector write:
    maxMag() of U = 1.0011543 at location (0.010095216 0.0021141207 0.5) in cell 6146

yPlus yplus_stats write:
    patch bottom y+ : min = 7.6007945e-05, max = 0.0003551336, average = 8.4676115e-05

Time = 38s

[...]
DILUPBiCGStab:  Solving for k, Initial residual = 7.1896091e-09, Final residual = 8.1604118e-14, No Iterations 3
ExecutionTime = 117.80137 s  ClockTime = 117 s



volFieldValue mindomain_scalar write:
    min() of p = -0.00023105967 at location (1.9785208 1.0023271e-06 0.5) in cell 135
    min() of k = 7.4839563e-10 at location (0.0020059438 1.0023271e-06 0.5) in cell 24
    min() of omega = 5.0437032 at location (1.9785208 0.94257453 0.5) in cell 13055
    min() of nut = 4.6992677e-17 at location (0.0020059438 1.0023271e-06 0.5) in cell 24

volFieldValue mindomain_vector write:
    minMag() of U = 0.0060515487 at location (1.9785208 1.0023271e-06 0.5) in cell 135

volFieldValue maxdomain_scalar write:
    max() of p = 0.012101311 at location (-0.0020050773 1.0023271e-06 0.5) in cell 23
    max() of k = 0.0062175455 at location (0.022490245 0.00012726745 0.5) in cell 3021
    max() of omega = 15925793 at location (0.61290317 1.0023271e-06 0.5) in cell 99
    max() of nut = 7.9244484e-05 at location (1.9785208 0.010325776 0.5) in cell 8023

volFieldValue maxdomain_vector write:
    maxMag() of U = 1.0039836 at location (1.9785208 0.082156882 0.5) in cell 10335

yPlus yplus_stats write:
    patch bottom y+ : min = 7.5094082e-05, max = 0.00051171785, average = 0.00030171949

Time = 1992s

DILUPBiCGStab:  Solving for Ux, Initial residual = 1.366948e-06, Final residual = 9.6779342e-12, No Iterations 3
DILUPBiCGStab:  Solving for Uy, Initial residual = 0.0010639082, Final residual = 1.8194086e-11, No Iterations 3
DICPCG:  Solving for p, Initial residual = 0.00017651141, Final residual = 1.7282049e-06, No Iterations 73
DICPCG:  Solving for p, Initial residual = 1.7244343e-06, Final residual = 1.6326099e-08, No Iterations 43
DICPCG:  Solving for p, Initial residual = 1.632613e-08, Final residual = 9.6043328e-09, No Iterations 6
time step continuity errors : sum local = 4.418985e-10, global = -3.9021576e-11, cumulative = -2.5048447e-10
DILUPBiCGStab:  Solving for omega, Initial residual = 6.1408208e-12, Final residual = 2.8787122e-18, No Iterations 3
DILUPBiCGStab:  Solving for k, Initial residual = 6.069891e-09, Final residual = 1.5927924e-13, No Iterations 3
ExecutionTime = 117.85636 s  ClockTime = 117 s



volFieldValue mindomain_scalar write:
    min() of p = -0.00023097841 at location (1.9785208 1.0023271e-06 0.5) in cell 135
    min() of k = 7.4818668e-10 at location (0.0020059438 1.0023271e-06 0.5) in cell 24
    min() of omega = 5.0437035 at location (1.9785208 0.94257453 0.5) in cell 13055
    min() of nut = 4.6979557e-17 at location (0.0020059438 1.0023271e-06 0.5) in cell 24

volFieldValue mindomain_vector write:
    minMag() of U = 0.0060515488 at location (1.9785208 1.0023271e-06 0.5) in cell 135

volFieldValue maxdomain_scalar write:
    max() of p = 0.012109738 at location (-0.0020050773 1.0023271e-06 0.5) in cell 23
    max() of k = 0.0062175456 at location (0.022490245 0.00012726745 0.5) in cell 3021
    max() of omega = 15925793 at location (0.61290317 1.0023271e-06 0.5) in cell 99
    max() of nut = 7.9244608e-05 at location (1.9785208 0.010325776 0.5) in cell 8023

volFieldValue maxdomain_vector write:
    maxMag() of U = 1.0039843 at location (1.9785208 0.082156882 0.5) in cell 10335

yPlus yplus_stats write:
    patch bottom y+ : min = 7.5083599e-05, max = 0.0005117178, average = 0.00030171939

Time = 1993s

DILUPBiCGStab:  Solving for Ux, Initial residual = 1.3676862e-06, Final residual = 1.0086394e-11, No Iterations 3
DILUPBiCGStab:  Solving for Uy, Initial residual = 0.0010670217, Final residual = 1.7979562e-11, No Iterations 3
DICPCG:  Solving for p, Initial residual = 0.00017612856, Final residual = 1.7196654e-06, No Iterations 73
DICPCG:  Solving for p, Initial residual = 1.7234257e-06, Final residual = 1.643173e-08, No Iterations 43
DICPCG:  Solving for p, Initial residual = 1.6431729e-08, Final residual = 9.6309846e-09, No Iterations 6
time step continuity errors : sum local = 4.4215086e-10, global = 3.9337956e-11, cumulative = -2.1114652e-10
DILUPBiCGStab:  Solving for omega, Initial residual = 6.0393865e-12, Final residual = 2.7021228e-18, No Iterations 3
DILUPBiCGStab:  Solving for k, Initial residual = 7.1684494e-09, Final residual = 8.1743096e-14, No Iterations 3
ExecutionTime = 117.91253 s  ClockTime = 118 s



volFieldValue mindomain_scalar write:
    min() of p = -0.00023105967 at location (1.9785208 1.0023271e-06 0.5) in cell 135
    min() of k = 7.4797826e-10 at location (0.0020059438 1.0023271e-06 0.5) in cell 24
    min() of omega = 5.0437032 at location (1.9785208 0.94257453 0.5) in cell 13055
    min() of nut = 4.696647e-17 at location (0.0020059438 1.0023271e-06 0.5) in cell 24

volFieldValue mindomain_vector write:
    minMag() of U = 0.0060515488 at location (1.9785208 1.0023271e-06 0.5) in cell 135

volFieldValue maxdomain_scalar write:
    max() of p = 0.012101309 at location (-0.0020050773 1.0023271e-06 0.5) in cell 23
    max() of k = 0.0062175457 at location (0.022490245 0.00012726745 0.5) in cell 3021
    max() of omega = 15925793 at location (0.61290317 1.0023271e-06 0.5) in cell 99
    max() of nut = 7.9244481e-05 at location (1.9785208 0.010325776 0.5) in cell 8023

volFieldValue maxdomain_vector write:
    maxMag() of U = 1.0039836 at location (1.9785208 0.082156882 0.5) in cell 10335

yPlus yplus_stats write:
    patch bottom y+ : min = 7.507314e-05, max = 0.00051171776, average = 0.00030171929

Time = 1994s

DILUPBiCGStab:  Solving for Ux, Initial residual = 1.3669523e-06, Final residual = 9.6815583e-12, No Iterations 3
DILUPBiCGStab:  Solving for Uy, Initial residual = 0.0010639077, Final residual = 1.8198495e-11, No Iterations 3
DICPCG:  Solving for p, Initial residual = 0.00017651138, Final residual = 1.7281251e-06, No Iterations 73
DICPCG:  Solving for p, Initial residual = 1.7243547e-06, Final residual = 1.6326348e-08, No Iterations 43
DICPCG:  Solving for p, Initial residual = 1.6326372e-08, Final residual = 9.6043245e-09, No Iterations 6
time step continuity errors : sum local = 4.418979e-10, global = -3.9023685e-11, cumulative = -2.501702e-10
DILUPBiCGStab:  Solving for omega, Initial residual = 6.1025037e-12, Final residual = 2.8681344e-18, No Iterations 3
DILUPBiCGStab:  Solving for k, Initial residual = 6.0623325e-09, Final residual = 1.5740251e-13, No Iterations 3
ExecutionTime = 117.97048 s  ClockTime = 118 s



volFieldValue mindomain_scalar write:
    min() of p = -0.00023097841 at location (1.9785208 1.0023271e-06 0.5) in cell 135
    min() of k = 7.4777031e-10 at location (0.0020059438 1.0023271e-06 0.5) in cell 24
    min() of omega = 5.0437035 at location (1.9785208 0.94257453 0.5) in cell 13055
    min() of nut = 4.6953412e-17 at location (0.0020059438 1.0023271e-06 0.5) in cell 24

volFieldValue mindomain_vector write:
    minMag() of U = 0.0060515488 at location (1.9785208 1.0023271e-06 0.5) in cell 135

volFieldValue maxdomain_scalar write:
    max() of p = 0.012109736 at location (-0.0020050773 1.0023271e-06 0.5) in cell 23
    max() of k = 0.0062175457 at location (0.022490245 0.00012726745 0.5) in cell 3021
    max() of omega = 15925793 at location (0.61290317 1.0023271e-06 0.5) in cell 99
    max() of nut = 7.9244605e-05 at location (1.9785208 0.010325776 0.5) in cell 8023

volFieldValue maxdomain_vector write:
    maxMag() of U = 1.0039843 at location (1.9785208 0.082156882 0.5) in cell 10335

yPlus yplus_stats write:
    patch bottom y+ : min = 7.5062703e-05, max = 0.00051171771, average = 0.00030171919

Time = 1995s

DILUPBiCGStab:  Solving for Ux, Initial residual = 1.3676748e-06, Final residual = 1.0082304e-11, No Iterations 3
DILUPBiCGStab:  Solving for Uy, Initial residual = 0.001067021, Final residual = 1.7972077e-11, No Iterations 3
DICPCG:  Solving for p, Initial residual = 0.00017612854, Final residual = 1.719708e-06, No Iterations 73
DICPCG:  Solving for p, Initial residual = 1.7234684e-06, Final residual = 1.6431512e-08, No Iterations 43
DICPCG:  Solving for p, Initial residual = 1.6431515e-08, Final residual = 9.6310052e-09, No Iterations 6
time step continuity errors : sum local = 4.4215165e-10, global = 3.9337486e-11, cumulative = -2.1083272e-10
DILUPBiCGStab:  Solving for omega, Initial residual = 6.001169e-12, Final residual = 2.6935687e-18, No Iterations 3
DILUPBiCGStab:  Solving for k, Initial residual = 7.147411e-09, Final residual = 8.1887488e-14, No Iterations 3
ExecutionTime = 118.02373 s  ClockTime = 118 s



volFieldValue mindomain_scalar write:
    min() of p = -0.00023105967 at location (1.9785208 1.0023271e-06 0.5) in cell 135
    min() of k = 7.4756288e-10 at location (0.0020059438 1.0023271e-06 0.5) in cell 24
    min() of omega = 5.0437032 at location (1.9785208 0.94257453 0.5) in cell 13055
    min() of nut = 4.6940387e-17 at location (0.0020059438 1.0023271e-06 0.5) in cell 24

volFieldValue mindomain_vector write:
    minMag() of U = 0.0060515488 at location (1.9785208 1.0023271e-06 0.5) in cell 135

volFieldValue maxdomain_scalar write:
    max() of p = 0.012101308 at location (-0.0020050773 1.0023271e-06 0.5) in cell 23
    max() of k = 0.0062175458 at location (0.022490245 0.00012726745 0.5) in cell 3021
    max() of omega = 15925793 at location (0.61290317 1.0023271e-06 0.5) in cell 99
    max() of nut = 7.9244478e-05 at location (1.9785208 0.010325776 0.5) in cell 8023

volFieldValue maxdomain_vector write:
    maxMag() of U = 1.0039836 at location (1.9785208 0.082156882 0.5) in cell 10335

yPlus yplus_stats write:
    patch bottom y+ : min = 7.5052292e-05, max = 0.00051171766, average = 0.0003017191

Time = 1996s

DILUPBiCGStab:  Solving for Ux, Initial residual = 1.3669568e-06, Final residual = 9.6851981e-12, No Iterations 3
DILUPBiCGStab:  Solving for Uy, Initial residual = 0.0010639073, Final residual = 1.8202419e-11, No Iterations 3
DICPCG:  Solving for p, Initial residual = 0.00017651135, Final residual = 1.7280396e-06, No Iterations 73
DICPCG:  Solving for p, Initial residual = 1.7242694e-06, Final residual = 1.6326503e-08, No Iterations 43
DICPCG:  Solving for p, Initial residual = 1.6326525e-08, Final residual = 9.6043428e-09, No Iterations 6
time step continuity errors : sum local = 4.4189904e-10, global = -3.9024767e-11, cumulative = -2.4985748e-10
DILUPBiCGStab:  Solving for omega, Initial residual = 6.0645615e-12, Final residual = 2.8589888e-18, No Iterations 3
DILUPBiCGStab:  Solving for k, Initial residual = 6.0554066e-09, Final residual = 1.5551169e-13, No Iterations 3
ExecutionTime = 118.08579 s  ClockTime = 118 s



volFieldValue mindomain_scalar write:
    min() of p = -0.00023097841 at location (1.9785208 1.0023271e-06 0.5) in cell 135
    min() of k = 7.4735592e-10 at location (0.0020059438 1.0023271e-06 0.5) in cell 24
    min() of omega = 5.0437035 at location (1.9785208 0.94257453 0.5) in cell 13055
    min() of nut = 4.6927392e-17 at location (0.0020059438 1.0023271e-06 0.5) in cell 24

volFieldValue mindomain_vector write:
    minMag() of U = 0.0060515489 at location (1.9785208 1.0023271e-06 0.5) in cell 135

volFieldValue maxdomain_scalar write:
    max() of p = 0.012109735 at location (-0.0020050773 1.0023271e-06 0.5) in cell 23
    max() of k = 0.0062175459 at location (0.022490245 0.00012726745 0.5) in cell 3021
    max() of omega = 15925793 at location (0.61290317 1.0023271e-06 0.5) in cell 99
    max() of nut = 7.9244602e-05 at location (1.9785208 0.010325776 0.5) in cell 8023

volFieldValue maxdomain_vector write:
    maxMag() of U = 1.0039843 at location (1.9785208 0.082156882 0.5) in cell 10335

yPlus yplus_stats write:
    patch bottom y+ : min = 7.5041902e-05, max = 0.00051171762, average = 0.000301719

Time = 1997s

DILUPBiCGStab:  Solving for Ux, Initial residual = 1.3676636e-06, Final residual = 1.007822e-11, No Iterations 3
DILUPBiCGStab:  Solving for Uy, Initial residual = 0.0010670203, Final residual = 1.7964777e-11, No Iterations 3
DICPCG:  Solving for p, Initial residual = 0.00017612852, Final residual = 1.7197443e-06, No Iterations 73
DICPCG:  Solving for p, Initial residual = 1.7235048e-06, Final residual = 1.6430941e-08, No Iterations 43
DICPCG:  Solving for p, Initial residual = 1.6430941e-08, Final residual = 9.6308705e-09, No Iterations 6
time step continuity errors : sum local = 4.4214559e-10, global = 3.9336868e-11, cumulative = -2.1052061e-10
DILUPBiCGStab:  Solving for omega, Initial residual = 5.9633582e-12, Final residual = 2.6855507e-18, No Iterations 3
DILUPBiCGStab:  Solving for k, Initial residual = 7.1265273e-09, Final residual = 8.2040116e-14, No Iterations 3
ExecutionTime = 118.13678 s  ClockTime = 118 s



volFieldValue mindomain_scalar write:
    min() of p = -0.00023105967 at location (1.9785208 1.0023271e-06 0.5) in cell 135
    min() of k = 7.4714947e-10 at location (0.0020059438 1.0023271e-06 0.5) in cell 24
    min() of omega = 5.0437032 at location (1.9785208 0.94257453 0.5) in cell 13055
    min() of nut = 4.6914429e-17 at location (0.0020059438 1.0023271e-06 0.5) in cell 24

volFieldValue mindomain_vector write:
    minMag() of U = 0.0060515489 at location (1.9785208 1.0023271e-06 0.5) in cell 135

volFieldValue maxdomain_scalar write:
    max() of p = 0.012101306 at location (-0.0020050773 1.0023271e-06 0.5) in cell 23
    max() of k = 0.0062175459 at location (0.022490245 0.00012726745 0.5) in cell 3021
    max() of omega = 15925793 at location (0.61290317 1.0023271e-06 0.5) in cell 99
    max() of nut = 7.9244475e-05 at location (1.9785208 0.010325776 0.5) in cell 8023

volFieldValue maxdomain_vector write:
    maxMag() of U = 1.0039836 at location (1.9785208 0.082156882 0.5) in cell 10335

yPlus yplus_stats write:
    patch bottom y+ : min = 7.5031536e-05, max = 0.00051171757, average = 0.0003017189

Time = 1998s

DILUPBiCGStab:  Solving for Ux, Initial residual = 1.3669617e-06, Final residual = 9.6888446e-12, No Iterations 3
DILUPBiCGStab:  Solving for Uy, Initial residual = 0.0010639068, Final residual = 1.8206032e-11, No Iterations 3
DICPCG:  Solving for p, Initial residual = 0.00017651133, Final residual = 1.7279607e-06, No Iterations 73
DICPCG:  Solving for p, Initial residual = 1.7241906e-06, Final residual = 1.6326672e-08, No Iterations 43
DICPCG:  Solving for p, Initial residual = 1.6326699e-08, Final residual = 9.604236e-09, No Iterations 6
time step continuity errors : sum local = 4.4189419e-10, global = -3.902628e-11, cumulative = -2.4954689e-10
DILUPBiCGStab:  Solving for omega, Initial residual = 6.0269657e-12, Final residual = 2.8491829e-18, No Iterations 3
DILUPBiCGStab:  Solving for k, Initial residual = 6.0490759e-09, Final residual = 1.5362246e-13, No Iterations 3
ExecutionTime = 118.18825 s  ClockTime = 118 s



volFieldValue mindomain_scalar write:
    min() of p = -0.00023097841 at location (1.9785208 1.0023271e-06 0.5) in cell 135
    min() of k = 7.469435e-10 at location (0.0020059438 1.0023271e-06 0.5) in cell 24
    min() of omega = 5.0437035 at location (1.9785208 0.94257453 0.5) in cell 13055
    min() of nut = 4.6901495e-17 at location (0.0020059438 1.0023271e-06 0.5) in cell 24

volFieldValue mindomain_vector write:
    minMag() of U = 0.0060515489 at location (1.9785208 1.0023271e-06 0.5) in cell 135

volFieldValue maxdomain_scalar write:
    max() of p = 0.012109733 at location (-0.0020050773 1.0023271e-06 0.5) in cell 23
    max() of k = 0.006217546 at location (0.022490245 0.00012726745 0.5) in cell 3021
    max() of omega = 15925793 at location (0.61290317 1.0023271e-06 0.5) in cell 99
    max() of nut = 7.9244599e-05 at location (1.9785208 0.010325776 0.5) in cell 8023

volFieldValue maxdomain_vector write:
    maxMag() of U = 1.0039843 at location (1.9785208 0.082156882 0.5) in cell 10335

yPlus yplus_stats write:
    patch bottom y+ : min = 7.5021193e-05, max = 0.00051171752, average = 0.0003017188

Time = 1999s

DILUPBiCGStab:  Solving for Ux, Initial residual = 1.3676526e-06, Final residual = 1.0074138e-11, No Iterations 3
DILUPBiCGStab:  Solving for Uy, Initial residual = 0.0010670196, Final residual = 1.7957818e-11, No Iterations 3
DICPCG:  Solving for p, Initial residual = 0.0001761285, Final residual = 1.71978e-06, No Iterations 73
DICPCG:  Solving for p, Initial residual = 1.7235405e-06, Final residual = 1.6430659e-08, No Iterations 43
DICPCG:  Solving for p, Initial residual = 1.6430663e-08, Final residual = 9.6308558e-09, No Iterations 6
time step continuity errors : sum local = 4.4214454e-10, global = 3.9336081e-11, cumulative = -2.1021081e-10
DILUPBiCGStab:  Solving for omega, Initial residual = 5.9258328e-12, Final residual = 2.6769269e-18, No Iterations 3
DILUPBiCGStab:  Solving for k, Initial residual = 7.1057941e-09, Final residual = 8.2195919e-14, No Iterations 3
ExecutionTime = 118.24536 s  ClockTime = 118 s



volFieldValue mindomain_scalar write:
    min() of p = -0.00023105968 at location (1.9785208 1.0023271e-06 0.5) in cell 135
    min() of k = 7.4673804e-10 at location (0.0020059438 1.0023271e-06 0.5) in cell 24
    min() of omega = 5.0437032 at location (1.9785208 0.94257453 0.5) in cell 13055
    min() of nut = 4.6888594e-17 at location (0.0020059438 1.0023271e-06 0.5) in cell 24

volFieldValue mindomain_vector write:
    minMag() of U = 0.0060515489 at location (1.9785208 1.0023271e-06 0.5) in cell 135

volFieldValue maxdomain_scalar write:
    max() of p = 0.012101305 at location (-0.0020050773 1.0023271e-06 0.5) in cell 23
    max() of k = 0.0062175461 at location (0.022490245 0.00012726745 0.5) in cell 3021
    max() of omega = 15925793 at location (0.61290317 1.0023271e-06 0.5) in cell 99
    max() of nut = 7.9244472e-05 at location (1.9785208 0.010325776 0.5) in cell 8023

volFieldValue maxdomain_vector write:
    maxMag() of U = 1.0039836 at location (1.9785208 0.082156882 0.5) in cell 10335

yPlus yplus_stats write:
    patch bottom y+ : min = 7.5010875e-05, max = 0.00051171748, average = 0.00030171871

Time = 2000s

DILUPBiCGStab:  Solving for Ux, Initial residual = 1.3669666e-06, Final residual = 9.6924927e-12, No Iterations 3
DILUPBiCGStab:  Solving for Uy, Initial residual = 0.0010639063, Final residual = 1.8209367e-11, No Iterations 3
DICPCG:  Solving for p, Initial residual = 0.0001765113, Final residual = 1.7278801e-06, No Iterations 73
DICPCG:  Solving for p, Initial residual = 1.7241102e-06, Final residual = 1.6327159e-08, No Iterations 43
DICPCG:  Solving for p, Initial residual = 1.6327184e-08, Final residual = 9.6045095e-09, No Iterations 6
time step continuity errors : sum local = 4.4190652e-10, global = -3.9028513e-11, cumulative = -2.4923933e-10
DILUPBiCGStab:  Solving for omega, Initial residual = 5.9896866e-12, Final residual = 2.8391815e-18, No Iterations 3
DILUPBiCGStab:  Solving for k, Initial residual = 6.0434497e-09, Final residual = 1.5174433e-13, No Iterations 3
ExecutionTime = 118.34525 s  ClockTime = 118 s



volFieldValue mindomain_scalar write:
    min() of p = -0.00023097841 at location (1.9785208 1.0023271e-06 0.5) in cell 135
    min() of k = 7.4653304e-10 at location (0.0020059438 1.0023271e-06 0.5) in cell 24
    min() of omega = 5.0437035 at location (1.9785208 0.94257453 0.5) in cell 13055
    min() of nut = 4.6875723e-17 at location (0.0020059438 1.0023271e-06 0.5) in cell 24

volFieldValue mindomain_vector write:
    minMag() of U = 0.006051549 at location (1.9785208 1.0023271e-06 0.5) in cell 135

volFieldValue maxdomain_scalar write:
    max() of p = 0.012109732 at location (-0.0020050773 1.0023271e-06 0.5) in cell 23
    max() of k = 0.0062175461 at location (0.022490245 0.00012726745 0.5) in cell 3021
    max() of omega = 15925793 at location (0.61290317 1.0023271e-06 0.5) in cell 99
    max() of nut = 7.9244596e-05 at location (1.9785208 0.010325776 0.5) in cell 8023

volFieldValue maxdomain_vector write:
    maxMag() of U = 1.0039843 at location (1.9785208 0.082156882 0.5) in cell 10335

yPlus yplus_stats write:
    patch bottom y+ : min = 7.5000578e-05, max = 0.00051171743, average = 0.00030171861

End

