/*---------------------------------------------------------------------------*\
  =========                 |
  \\      /  F ield         | OpenFOAM: The Open Source CFD Toolbox
   \\    /   O peration     | Website:  https://openfoam.org
    \\  /    A nd           | Version:  12
     \\/     M anipulation  |
\*---------------------------------------------------------------------------*/
Build  : 12-86e126a7bc4d
Exec   : foamRun
Date   : Jun 14 2026
Time   : 19:30:20
Host   : "NotebookdoDan"
PID    : 8011
I/O    : uncollated
Case   : /home/danilom/OpenFOAM/danilom-12/run/GT1/turbulent_wedge
nProcs : 1
sigFpe : Enabling floating point exception trapping (FOAM_SIGFPE).
fileModificationChecking : Monitoring run-time modified files using timeStampMaster (fileModificationSkew 10)
allowSystemOperations : Allowing user-supplied system call operations

// * * * * * * * * * * * * * * * * * * * * * * * * * * * * * * * * * * * * * //
Create time

Create mesh for time = 0

Selecting solver incompressibleFluid
Selecting viscosity model constant
Selecting turbulence model type RAS
Selecting RAS turbulence model kOmega2006
RAS
{
    RASModel        kOmega2006;
    turbulence      on;
    printCoeffs     on;
    betaStar        0.09;
    beta0           0.0708;
    gamma           0.52;
    Clim            0.875;
    sigmaDo         0.125;
    alphaK          0.6;
    alphaOmega      0.5;
}

No MRF models present


SIMPLE: No convergence criteria found


SIMPLE: Operating solver in steady-state mode with 1 outer corrector
SIMPLE: Operating solver in SIMPLE mode



Starting time loop

    - selecting all cells
    - selected 3000 cell(s) with volume 0.0013959798681


    - selecting all cells
    - selected 3000 cell(s) with volume 0.0013959798681


    - selecting all cells
    - selected 3000 cell(s) with volume 0.0013959798681


    - selecting all cells
    - selected 3000 cell(s) with volume 0.0013959798681


    - selecting all cells
    - selected 3000 cell(s) with volume 0.0013959798681


    - selecting all cells
    - selected 3000 cell(s) with volume 0.0013959798681


wallShearStress wallShearStress1:
    processing all wall patches

--> FOAM Warning :     functionObjects::volFieldValue minmaxdomain_scalar cannot find required object epsilon
--> FOAM Warning :     functionObjects::volFieldValue minmaxdomain_scalar cannot find required object nuTilda


volFieldValue mindomain_scalar write:
    min() of p = 0 at location (0.04 0.00560560819348 0.1) in cell 0
    min() of k = 0.00015 at location (0.04 0.00560560819348 0.1) in cell 0
    min() of omega = 7.5 at location (0.04 0.00560560819348 0.1) in cell 0
    min() of nut = 2e-05 at location (0.04 0.00560560819348 0.1) in cell 0
--> FOAM Warning :     functionObjects::volFieldValue mindomain_scalar cannot find required object epsilon
--> FOAM Warning :     functionObjects::volFieldValue mindomain_scalar cannot find required object nuTilda

volFieldValue mindomain_vector write:
    minMag() of U = 1 at location (0.04 0.00560560819348 0.1) in cell 0

volFieldValue maxdomain_scalar write:
    max() of p = 0 at location (0.04 0.00560560819348 0.1) in cell 0
    max() of k = 0.00015 at location (0.04 0.00560560819348 0.1) in cell 0
    max() of omega = 7.5 at location (0.04 0.00560560819348 0.1) in cell 0
    max() of nut = 2e-05 at location (0.04 0.00560560819348 0.1) in cell 0
--> FOAM Warning :     functionObjects::volFieldValue maxdomain_scalar cannot find required object epsilon
--> FOAM Warning :     functionObjects::volFieldValue maxdomain_scalar cannot find required object nuTilda

volFieldValue maxdomain_vector write:
    maxMag() of U = 1 at location (0.04 0.00560560819348 0.1) in cell 0

Time = 1s

DILUPBiCGStab:  Solving for Ux, Initial residual = 1, Final residual = 4.22319309419e-09, No Iterations 9
DILUPBiCGStab:  Solving for Uy, Initial residual = 0.732488005787, Final residual = 4.21195829267e-09, No Iterations 9
DILUPBiCGStab:  Solving for Uz, Initial residual = 0.62722843067, Final residual = 6.97699717326e-09, No Iterations 8
DICPCG:  Solving for p, Initial residual = 1, Final residual = 0.00108504040467, No Iterations 102
DICPCG:  Solving for p, Initial residual = 5.37121920316e-06, Final residual = 1.65304855218e-08, No Iterations 3
time step continuity errors : sum local = 1.33982264209e-08, global = -2.11716154577e-10, cumulative = -2.11716154577e-10
DILUPBiCGStab:  Solving for omega, Initial residual = 0.0291813250518, Final residual = 3.99386369931e-09, No Iterations 7
DILUPBiCGStab:  Solving for k, Initial residual = 1, Final residual = 5.56028127827e-09, No Iterations 5
ExecutionTime = 0.083696 s  ClockTime = 0 s

--> FOAM Warning :     functionObjects::volFieldValue minmaxdomain_scalar cannot find required object epsilon
--> FOAM Warning :     functionObjects::volFieldValue minmaxdomain_scalar cannot find required object nuTilda


volFieldValue mindomain_scalar write:
    min() of p = 0.00296387040822 at location (7.96 0.0127006636087 0.1) in cell 2971
    min() of k = 7.4182590004e-05 at location (1.48 0.0885121358721 0.1) in cell 560
    min() of omega = 5.70808624237 at location (7.96 0.0267991468552 0.1) in cell 2973
    min() of nut = 1.70374486344e-07 at location (0.84 0.0956046353228 0.1) in cell 325
--> FOAM Warning :     functionObjects::volFieldValue mindomain_scalar cannot find required object epsilon
--> FOAM Warning :     functionObjects::volFieldValue mindomain_scalar cannot find required object nuTilda

volFieldValue mindomain_vector write:
    minMag() of U = 0.368856712459 at location (7.96 0.0995649406574 0.1) in cell 2999

volFieldValue maxdomain_scalar write:
    max() of p = 0.594815006912 at location (0.04 0.0995649406574 0.1) in cell 29
    max() of k = 0.0106510386812 at location (0.04 0.0995649406574 0.1) in cell 29
    max() of omega = 9077.69124089 at location (2.36 0.0995649406574 0.1) in cell 899
    max() of nut = 2.11759099687e-05 at location (7.96 0.0127006636087 0.1) in cell 2971
--> FOAM Warning :     functionObjects::volFieldValue maxdomain_scalar cannot find required object epsilon
--> FOAM Warning :     functionObjects::volFieldValue maxdomain_scalar cannot find required object nuTilda

volFieldValue maxdomain_vector write:
    maxMag() of U = 1.04374024459 at location (7.96 0.0331297396555 0.1) in cell 2974

Time = 2s

DILUPBiCGStab:  Solving for Ux, Initial residual = 0.17969347025, Final residual = 5.66421721561e-09, No Iterations 9
DILUPBiCGStab:  Solving for Uy, Initial residual = 0.34139171569, Final residual = 9.94796355013e-09, No Iterations 10
DILUPBiCGStab:  Solving for Uz, Initial residual = 0.674012065098, Final residual = 4.9411062664e-09, No Iterations 8
DICPCG:  Solving for p, Initial residual = 0.0115341688588, Final residual = 8.36838833697e-05, No Iterations 101
DICPCG:  Solving for p, Initial residual = 8.92703471388e-05, Final residual = 5.60413046856e-07, No Iterations 3
time step continuity errors : sum local = 4.14634046619e-07, global = -1.68773493219e-08, cumulative = -1.70890654765e-08
DILUPBiCGStab:  Solving for omega, Initial residual = 0.274692336517, Final residual = 4.71388180131e-09, No Iterations 4
DILUPBiCGStab:  Solving for k, Initial residual = 0.875315675372, Final residual = 3.13182122916e-09, No Iterations 5
ExecutionTime = 0.103146 s  ClockTime = 0 s

--> FOAM Warning :     functionObjects::volFieldValue minmaxdomain_scalar cannot find required object epsilon
--> FOAM Warning :     functionObjects::volFieldValue minmaxdomain_scalar cannot find required object nuTilda


volFieldValue mindomain_scalar write:
    min() of p = 0.00272068906705 at location (7.96 0.0127006636087 0.1) in cell 2971
    min() of k = 4.53395365019e-05 at location (1.48 0.0901642532855 0.1) in cell 561
    min() of omega = 5.48715953723e-05 at location (0.04 0.0930999149657 0.1) in cell 23
    min() of nut = 8.35223705739e-08 at location (7.96 0.0995649406574 0.1) in cell 2999
--> FOAM Warning :     functionObjects::volFieldValue mindomain_scalar cannot find required object epsilon
--> FOAM Warning :     functionObjects::volFieldValue mindomain_scalar cannot find required object nuTilda

volFieldValue mindomain_vector write:
    minMag() of U = 0.149005137443 at location (7.96 0.0995649406574 0.1) in cell 2999

volFieldValue maxdomain_scalar write:
    max() of p = 0.61094478233 at location (0.04 0.0995649406574 0.1) in cell 29
    max() of k = 0.00141419368428 at location (0.04 0.0995649406574 0.1) in cell 29
    max() of omega = 9077.69124089 at location (2.36 0.0995649406574 0.1) in cell 899
    max() of nut = 0.000524057802448 at location (0.04 0.0867235495383 0.1) in cell 19
--> FOAM Warning :     functionObjects::volFieldValue maxdomain_scalar cannot find required object epsilon
--> FOAM Warning :     functionObjects::volFieldValue maxdomain_scalar cannot find required object nuTilda

volFieldValue maxdomain_vector write:
    maxMag() of U = 1.08207931417 at location (7.96 0.0331297396555 0.1) in cell 2974

Time = 3s

DILUPBiCGStab:  Solving for Ux, Initial residual = 0.0653847573555, Final residual = 1.63454803233e-09, No Iterations 9
DILUPBiCGStab:  Solving for Uy, Initial residual = 0.236419554582, Final residual = 3.97114184912e-09, No Iterations 10
DILUPBiCGStab:  Solving for Uz, Initial residual = 0.603494587494, Final residual = 3.05145282643e-09, No Iterations 8
DICPCG:  Solving for p, Initial residual = 0.0154502290985, Final residual = 8.86499683614e-05, No Iterations 101
DICPCG:  Solving for p, Initial residual = 0.000122996004955, Final residual = 8.1403891874e-07, No Iterations 3
time step continuity errors : sum local = 4.40424528269e-07, global = -1.44913301275e-08, cumulative = -3.1580395604e-08
DILUPBiCGStab:  Solving for omega, Initial residual = 0.00997690086514, Final residual = 5.54554035043e-09, No Iterations 4
DILUPBiCGStab:  Solving for k, Initial residual = 0.942868951582, Final residual = 8.46094374607e-09, No Iterations 5
ExecutionTime = 0.123609 s  ClockTime = 0 s

--> FOAM Warning :     functionObjects::volFieldValue minmaxdomain_scalar cannot find required object epsilon
--> FOAM Warning :     functionObjects::volFieldValue minmaxdomain_scalar cannot find required object nuTilda


volFieldValue mindomain_scalar write:
    min() of p = 0.00195789880383 at location (7.96 0.0127006636087 0.1) in cell 2971
    min() of k = 5.60811179195e-05 at location (1.4 0.0885121358721 0.1) in cell 530
    min() of omega = 3.95356397755 at location (7.96 0.0331297396555 0.1) in cell 2974
    min() of nut = 9.19141434993e-09 at location (7.96 0.0995649406574 0.1) in cell 2999
--> FOAM Warning :     functionObjects::volFieldValue mindomain_scalar cannot find required object epsilon
--> FOAM Warning :     functionObjects::volFieldValue mindomain_scalar cannot find required object nuTilda

volFieldValue mindomain_vector write:
    minMag() of U = 0.0955752759353 at location (7.96 0.0995649406574 0.1) in cell 2999

volFieldValue maxdomain_scalar write:
    max() of p = 0.505578587834 at location (0.04 0.0995649406574 0.1) in cell 29
    max() of k = 0.000288797216977 at location (0.04 0.0986894652383 0.1) in cell 28
    max() of omega = 9077.69124089 at location (2.36 0.0995649406574 0.1) in cell 899
    max() of nut = 3.08348149207e-05 at location (0.12 0.0847872309046 0.1) in cell 48
--> FOAM Warning :     functionObjects::volFieldValue maxdomain_scalar cannot find required object epsilon
--> FOAM Warning :     functionObjects::volFieldValue maxdomain_scalar cannot find required object nuTilda

volFieldValue maxdomain_vector write:
    maxMag() of U = 1.10851285577 at location (7.96 0.0331297396555 0.1) in cell 2974

Time = 4s

DILUPBiCGStab:  Solving for Ux, Initial residual = 0.0382669263704, Final residual = 7.1274327542e-09, No Iterations 8
DILUPBiCGStab:  Solving for Uy, Initial residual = 0.212258400503, Final residual = 7.03685426009e-09, No Iterations 9
DILUPBiCGStab:  Solving for Uz, Initial residual = 0.714633050774, Final residual = 9.78752135535e-09, No Iterations 8
DICPCG:  Solving for p, Initial residual = 0.0271967264548, Final residual = 9.76423935787e-05, No Iterations 101
DICPCG:  Solving for p, Initial residual = 0.000116219352679, Final residual = 5.58119932666e-07, No Iterations 3
time step continuity errors : sum local = 2.6983373686e-07, global = -8.86853584387e-09, cumulative = -4.04489314478e-08
DILUPBiCGStab:  Solving for omega, Initial residual = 0.0106440990636, Final residual = 4.27967955701e-09, No Iterations 4
DILUPBiCGStab:  Solving for k, Initial residual = 0.668745493272, Final residual = 6.07003305322e-09, No Iterations 6
ExecutionTime = 0.144655 s  ClockTime = 0 s

--> FOAM Warning :     functionObjects::volFieldValue minmaxdomain_scalar cannot find required object epsilon
--> FOAM Warning :     functionObjects::volFieldValue minmaxdomain_scalar cannot find required object nuTilda


volFieldValue mindomain_scalar write:
    min() of p = 0.0016254320656 at location (7.96 0.0127006636087 0.1) in cell 2971
    min() of k = 9.60016950462e-06 at location (7.96 0.0995649406574 0.1) in cell 2999
    min() of omega = 2.42426364828 at location (0.04 0.0916903082292 0.1) in cell 22
    min() of nut = 1.05755629376e-09 at location (7.96 0.0995649406574 0.1) in cell 2999
--> FOAM Warning :     functionObjects::volFieldValue mindomain_scalar cannot find required object epsilon
--> FOAM Warning :     functionObjects::volFieldValue mindomain_scalar cannot find required object nuTilda

volFieldValue mindomain_vector write:
    minMag() of U = 0.0739057757997 at location (7.96 0.0995649406574 0.1) in cell 2999

volFieldValue maxdomain_scalar write:
    max() of p = 0.455879259577 at location (0.04 0.0995649406574 0.1) in cell 29
    max() of k = 0.000229239803239 at location (0.2 0.096715534344 0.1) in cell 86
    max() of omega = 9077.69124089 at location (2.36 0.0995649406574 0.1) in cell 899
    max() of nut = 5.01159275341e-05 at location (0.04 0.0901642532855 0.1) in cell 21
--> FOAM Warning :     functionObjects::volFieldValue maxdomain_scalar cannot find required object epsilon
--> FOAM Warning :     functionObjects::volFieldValue maxdomain_scalar cannot find required object nuTilda

volFieldValue maxdomain_vector write:
    maxMag() of U = 1.12963194115 at location (7.96 0.0331297396555 0.1) in cell 2974

Time = 5s

DILUPBiCGStab:  Solving for Ux, Initial residual = 0.0271246468048, Final residual = 9.19861472692e-09, No Iterations 7
DILUPBiCGStab:  Solving for Uy, Initial residual = 0.195111676628, Final residual = 5.3962432932e-09, No Iterations 9
DILUPBiCGStab:  Solving for Uz, Initial residual = 0.702309600024, Final residual = 4.02823412303e-09, No Iterations 8
DICPCG:  Solving for p, Initial residual = 0.0236496490607, Final residual = 0.000103903643026, No Iterations 101
DICPCG:  Solving for p, Initial residual = 0.000108994018468, Final residual = 4.90122698448e-07, No Iterations 3
time step continuity errors : sum local = 2.30200709265e-07, global = -8.56293270942e-09, cumulative = -4.90118641573e-08
DILUPBiCGStab:  Solving for omega, Initial residual = 0.0039692113216, Final residual = 3.56050385044e-09, No Iterations 4
DILUPBiCGStab:  Solving for k, Initial residual = 0.108807980298, Final residual = 4.86644371576e-09, No Iterations 5
ExecutionTime = 0.16275 s  ClockTime = 0 s

--> FOAM Warning :     functionObjects::volFieldValue minmaxdomain_scalar cannot find required object epsilon
--> FOAM Warning :     functionObjects::volFieldValue minmaxdomain_scalar cannot find required object nuTilda


volFieldValue mindomain_scalar write:
    min() of p = 0.00151637212281 at location (7.96 0.00560560819348 0.1) in cell 2970
    min() of k = 1.35407177183e-06 at location (7.96 0.0995649406574 0.1) in cell 2999
    min() of omega = 3.11759814772 at location (7.96 0.0331297396555 0.1) in cell 2974
    min() of nut = 1.4916477504e-10 at location (7.96 0.0995649406574 0.1) in cell 2999
--> FOAM Warning :     functionObjects::volFieldValue mindomain_scalar cannot find required object epsilon
--> FOAM Warning :     functionObjects::volFieldValue mindomain_scalar cannot find required object nuTilda

volFieldValue mindomain_vector write:
    minMag() of U = 0.0624670543505 at location (7.96 0.0995649406574 0.1) in cell 2999

volFieldValue maxdomain_scalar write:
    max() of p = 0.448170034301 at location (0.04 0.0995649406574 0.1) in cell 29
    max() of k = 0.000243037039634 at location (0.28 0.0956046353228 0.1) in cell 115
    max() of omega = 9077.69124089 at location (2.36 0.0995649406574 0.1) in cell 899
    max() of nut = 2.51018959511e-05 at location (7.96 0.00560560819348 0.1) in cell 2970
--> FOAM Warning :     functionObjects::volFieldValue maxdomain_scalar cannot find required object epsilon
--> FOAM Warning :     functionObjects::volFieldValue maxdomain_scalar cannot find required object nuTilda

volFieldValue maxdomain_vector write:
    maxMag() of U = 1.14875067659 at location (7.96 0.0331297396555 0.1) in cell 2974

Time = 6s

DILUPBiCGStab:  Solving for Ux, Initial residual = 0.0211905573695, Final residual = 6.27692358717e-09, No Iterations 7
DILUPBiCGStab:  Solving for Uy, Initial residual = 0.181804797132, Final residual = 5.24541181545e-09, No Iterations 9
DILUPBiCGStab:  Solving for Uz, Initial residual = 0.656810919653, Final residual = 4.27430042143e-09, No Iterations 8
DICPCG:  Solving for p, Initial residual = 0.0255670043248, Final residual = 9.34861921495e-05, No Iterations 101
DICPCG:  Solving for p, Initial residual = 9.55031808638e-05, Final residual = 3.68727121874e-07, No Iterations 3
time step continuity errors : sum local = 1.72562828344e-07, global = -6.84102245606e-09, cumulative = -5.58528866133e-08
DILUPBiCGStab:  Solving for omega, Initial residual = 0.00314184996815, Final residual = 7.0567099194e-09, No Iterations 4
DILUPBiCGStab:  Solving for k, Initial residual = 0.0581584058097, Final residual = 3.49648661193e-09, No Iterations 5
ExecutionTime = 0.181526 s  ClockTime = 0 s

--> FOAM Warning :     functionObjects::volFieldValue minmaxdomain_scalar cannot find required object epsilon
--> FOAM Warning :     functionObjects::volFieldValue minmaxdomain_scalar cannot find required object nuTilda


volFieldValue mindomain_scalar write:
    min() of p = 0.00144766091184 at location (7.96 0.0127006636087 0.1) in cell 2971
    min() of k = 3.58803478745e-07 at location (7.96 0.0995649406574 0.1) in cell 2999
    min() of omega = 2.86160042759 at location (7.96 0.0331297396555 0.1) in cell 2974
    min() of nut = 3.95258518078e-11 at location (7.96 0.0995649406574 0.1) in cell 2999
--> FOAM Warning :     functionObjects::volFieldValue mindomain_scalar cannot find required object epsilon
--> FOAM Warning :     functionObjects::volFieldValue mindomain_scalar cannot find required object nuTilda

volFieldValue mindomain_vector write:
    minMag() of U = 0.0552045479462 at location (7.96 0.0995649406574 0.1) in cell 2999

volFieldValue maxdomain_scalar write:
    max() of p = 0.449507559191 at location (0.04 0.0995649406574 0.1) in cell 29
    max() of k = 0.000280740902314 at location (0.28 0.0956046353228 0.1) in cell 115
    max() of omega = 9077.69124089 at location (2.36 0.0995649406574 0.1) in cell 899
    max() of nut = 2.65151784334e-05 at location (7.96 0.00560560819348 0.1) in cell 2970
--> FOAM Warning :     functionObjects::volFieldValue maxdomain_scalar cannot find required object epsilon
--> FOAM Warning :     functionObjects::volFieldValue maxdomain_scalar cannot find required object nuTilda

volFieldValue maxdomain_vector write:
    maxMag() of U = 1.16652306001 at location (7.96 0.0331297396555 0.1) in cell 2974

Time = 7s

DILUPBiCGStab:  Solving for Ux, Initial residual = 0.0172410195364, Final residual = 4.15384499823e-09, No Iterations 7
DILUPBiCGStab:  Solving for Uy, Initial residual = 0.153424748739, Final residual = 6.73941128035e-09, No Iterations 8
DILUPBiCGStab:  Solving for Uz, Initial residual = 0.623896887761, Final residual = 5.2502809711e-09, No Iterations 8
DICPCG:  Solving for p, Initial residual = 0.0226796548781, Final residual = 0.00013470614338, No Iterations 97
DICPCG:  Solving for p, Initial residual = 0.000136777834679, Final residual = 1.2512806868e-06, No Iterations 98
time step continuity errors : sum local = 5.79084733469e-07, global = 3.62418629161e-09, cumulative = -5.22287003217e-08
DILUPBiCGStab:  Solving for omega, Initial residual = 0.00144857243326, Final residual = 3.69243969653e-09, No Iterations 4
DILUPBiCGStab:  Solving for k, Initial residual = 0.0485546063699, Final residual = 2.25667955304e-09, No Iterations 5
ExecutionTime = 0.201219 s  ClockTime = 0 s

--> FOAM Warning :     functionObjects::volFieldValue minmaxdomain_scalar cannot find required object epsilon
--> FOAM Warning :     functionObjects::volFieldValue minmaxdomain_scalar cannot find required object nuTilda


volFieldValue mindomain_scalar write:
    min() of p = 0.00138638291329 at location (7.96 0.0622835257241 0.1) in cell 2980
    min() of k = 2.0036669338e-07 at location (7.96 0.0995649406574 0.1) in cell 2999
    min() of omega = 2.67294271884 at location (7.96 0.0331297396555 0.1) in cell 2974
    min() of nut = 2.20724287776e-11 at location (7.96 0.0995649406574 0.1) in cell 2999
--> FOAM Warning :     functionObjects::volFieldValue mindomain_scalar cannot find required object epsilon
--> FOAM Warning :     functionObjects::volFieldValue mindomain_scalar cannot find required object nuTilda

volFieldValue mindomain_vector write:
    minMag() of U = 0.0501411738557 at location (7.96 0.0995649406574 0.1) in cell 2999

volFieldValue maxdomain_scalar write:
    max() of p = 0.452390625556 at location (0.04 0.0995649406574 0.1) in cell 29
    max() of k = 0.000332598436769 at location (0.44 0.0944019555441 0.1) in cell 174
    max() of omega = 9077.69124089 at location (2.36 0.0995649406574 0.1) in cell 899
    max() of nut = 2.7843778973e-05 at location (7.96 0.00560560819348 0.1) in cell 2970
--> FOAM Warning :     functionObjects::volFieldValue maxdomain_scalar cannot find required object epsilon
--> FOAM Warning :     functionObjects::volFieldValue maxdomain_scalar cannot find required object nuTilda

volFieldValue maxdomain_vector write:
    maxMag() of U = 1.18310462148 at location (7.96 0.0331297396555 0.1) in cell 2974

Time = 8s

DILUPBiCGStab:  Solving for Ux, Initial residual = 0.0143484063948, Final residual = 9.18802487806e-10, No Iterations 8
DILUPBiCGStab:  Solving for Uy, Initial residual = 0.131625568897, Final residual = 1.93608143592e-09, No Iterations 9
DILUPBiCGStab:  Solving for Uz, Initial residual = 0.609460844937, Final residual = 9.57742615128e-09, No Iterations 7
DICPCG:  Solving for p, Initial residual = 0.022074205167, Final residual = 6.96024893247e-05, No Iterations 99
DICPCG:  Solving for p, Initial residual = 7.04655096752e-05, Final residual = 5.70329880674e-07, No Iterations 10
time step continuity errors : sum local = 2.62917911397e-07, global = -1.12168945138e-08, cumulative = -6.34455948355e-08
DILUPBiCGStab:  Solving for omega, Initial residual = 0.00108497355041, Final residual = 9.95465488939e-09, No Iterations 3
DILUPBiCGStab:  Solving for k, Initial residual = 0.0489996466706, Final residual = 6.17036750428e-09, No Iterations 5
ExecutionTime = 0.219575 s  ClockTime = 0 s

--> FOAM Warning :     functionObjects::volFieldValue minmaxdomain_scalar cannot find required object epsilon
--> FOAM Warning :     functionObjects::volFieldValue minmaxdomain_scalar cannot find required object nuTilda


volFieldValue mindomain_scalar write:
    min() of p = 0.00133531575302 at location (7.96 0.0753053108735 0.1) in cell 2984
    min() of k = 1.68460087217e-07 at location (7.96 0.0995649406574 0.1) in cell 2999
    min() of omega = 2.5340709349 at location (7.96 0.0331297396555 0.1) in cell 2974
    min() of nut = 1.85575916548e-11 at location (7.96 0.0995649406574 0.1) in cell 2999
--> FOAM Warning :     functionObjects::volFieldValue mindomain_scalar cannot find required object epsilon
--> FOAM Warning :     functionObjects::volFieldValue mindomain_scalar cannot find required object nuTilda

volFieldValue mindomain_vector write:
    minMag() of U = 0.0463624283244 at location (7.96 0.0995649406574 0.1) in cell 2999

volFieldValue maxdomain_scalar write:
    max() of p = 0.455103319776 at location (0.04 0.0995649406574 0.1) in cell 29
    max() of k = 0.000403370038571 at location (0.44 0.0944019555441 0.1) in cell 174
    max() of omega = 9077.69124089 at location (2.36 0.0995649406574 0.1) in cell 899
    max() of nut = 2.89675943558e-05 at location (7.96 0.00560560819348 0.1) in cell 2970
--> FOAM Warning :     functionObjects::volFieldValue maxdomain_scalar cannot find required object epsilon
--> FOAM Warning :     functionObjects::volFieldValue maxdomain_scalar cannot find required object nuTilda

volFieldValue maxdomain_vector write:
    maxMag() of U = 1.19866404884 at location (7.96 0.0331297396555 0.1) in cell 2974

Time = 9s

DILUPBiCGStab:  Solving for Ux, Initial residual = 0.0121782082551, Final residual = 7.65237937441e-09, No Iterations 7
DILUPBiCGStab:  Solving for Uy, Initial residual = 0.115687644531, Final residual = 1.34712700983e-09, No Iterations 9
DILUPBiCGStab:  Solving for Uz, Initial residual = 0.611565335499, Final residual = 5.32284460018e-09, No Iterations 8
DICPCG:  Solving for p, Initial residual = 0.0200602330341, Final residual = 0.00019410822669, No Iterations 85
DICPCG:  Solving for p, Initial residual = 0.000193259958107, Final residual = 1.72633305196e-06, No Iterations 99
time step continuity errors : sum local = 8.00736043987e-07, global = -3.86107336003e-09, cumulative = -6.73066681955e-08
DILUPBiCGStab:  Solving for omega, Initial residual = 0.000514071018286, Final residual = 5.9332607783e-09, No Iterations 3
DILUPBiCGStab:  Solving for k, Initial residual = 0.0492027942219, Final residual = 7.48238626219e-09, No Iterations 5
ExecutionTime = 0.240228 s  ClockTime = 0 s

--> FOAM Warning :     functionObjects::volFieldValue minmaxdomain_scalar cannot find required object epsilon
--> FOAM Warning :     functionObjects::volFieldValue minmaxdomain_scalar cannot find required object nuTilda


volFieldValue mindomain_scalar write:
    min() of p = 0.00129529906482 at location (7.96 0.0847872309046 0.1) in cell 2988
    min() of k = 1.58709169055e-07 at location (7.96 0.0995649406574 0.1) in cell 2999
    min() of omega = 2.43065623446 at location (7.16 0.0331297396555 0.1) in cell 2674
    min() of nut = 1.74834288635e-11 at location (7.96 0.0995649406574 0.1) in cell 2999
--> FOAM Warning :     functionObjects::volFieldValue mindomain_scalar cannot find required object epsilon
--> FOAM Warning :     functionObjects::volFieldValue mindomain_scalar cannot find required object nuTilda

volFieldValue mindomain_vector write:
    minMag() of U = 0.0434762866111 at location (7.96 0.0995649406574 0.1) in cell 2999

volFieldValue maxdomain_scalar write:
    max() of p = 0.458875626238 at location (0.04 0.0995649406574 0.1) in cell 29
    max() of k = 0.000488537370218 at location (0.68 0.0930999149657 0.1) in cell 263
    max() of omega = 9077.69124089 at location (2.36 0.0995649406574 0.1) in cell 899
    max() of nut = 2.97572905452e-05 at location (7.96 0.00560560819348 0.1) in cell 2970
--> FOAM Warning :     functionObjects::volFieldValue maxdomain_scalar cannot find required object epsilon
--> FOAM Warning :     functionObjects::volFieldValue maxdomain_scalar cannot find required object nuTilda

volFieldValue maxdomain_vector write:
    maxMag() of U = 1.21336325059 at location (7.96 0.0331297396555 0.1) in cell 2974

Time = 10s

DILUPBiCGStab:  Solving for Ux, Initial residual = 0.0104586787632, Final residual = 5.20823246166e-09, No Iterations 7
DILUPBiCGStab:  Solving for Uy, Initial residual = 0.104929776432, Final residual = 8.25292824882e-09, No Iterations 8
DILUPBiCGStab:  Solving for Uz, Initial residual = 0.592157054675, Final residual = 6.47762429189e-09, No Iterations 8
DICPCG:  Solving for p, Initial residual = 0.019565511958, Final residual = 0.000175216130686, No Iterations 83
DICPCG:  Solving for p, Initial residual = 0.000174429020177, Final residual = 1.70427849902e-06, No Iterations 98
time step continuity errors : sum local = 7.88926035703e-07, global = 5.14074977385e-09, cumulative = -6.21659184217e-08
DILUPBiCGStab:  Solving for omega, Initial residual = 0.000408263396283, Final residual = 3.95261042648e-09, No Iterations 3
DILUPBiCGStab:  Solving for k, Initial residual = 0.0507935619163, Final residual = 5.68993876112e-09, No Iterations 5
ExecutionTime = 0.26425 s  ClockTime = 0 s

--> FOAM Warning :     functionObjects::volFieldValue minmaxdomain_scalar cannot find required object epsilon
--> FOAM Warning :     functionObjects::volFieldValue minmaxdomain_scalar cannot find required object nuTilda


volFieldValue mindomain_scalar write:
    min() of p = 0.00126403427341 at location (7.96 0.0995649406574 0.1) in cell 2999
    min() of k = 1.62861300363e-07 at location (7.96 0.0995649406574 0.1) in cell 2999
    min() of omega = 2.35052850888 at location (6.92 0.0331297396555 0.1) in cell 2584
    min() of nut = 1.79408283495e-11 at location (7.96 0.0995649406574 0.1) in cell 2999
--> FOAM Warning :     functionObjects::volFieldValue mindomain_scalar cannot find required object epsilon
--> FOAM Warning :     functionObjects::volFieldValue mindomain_scalar cannot find required object nuTilda

volFieldValue mindomain_vector write:
    minMag() of U = 0.0412295916419 at location (7.96 0.0995649406574 0.1) in cell 2999

volFieldValue maxdomain_scalar write:
    max() of p = 0.463140957652 at location (0.04 0.0995649406574 0.1) in cell 29
    max() of k = 0.000607837271216 at location (0.76 0.0930999149657 0.1) in cell 293
    max() of omega = 9077.69124089 at location (2.36 0.0995649406574 0.1) in cell 899
    max() of nut = 3.00983858761e-05 at location (7.96 0.00560560819348 0.1) in cell 2970
--> FOAM Warning :     functionObjects::volFieldValue maxdomain_scalar cannot find required object epsilon
--> FOAM Warning :     functionObjects::volFieldValue maxdomain_scalar cannot find required object nuTilda

volFieldValue maxdomain_vector write:
    maxMag() of U = 1.22731300592 at location (7.96 0.0331297396555 0.1) in cell 2974

Time = 11s

DILUPBiCGStab:  Solving for Ux, Initial residual = 0.00896716045406, Final residual = 4.15681906102e-09, No Iterations 7
DILUPBiCGStab:  Solving for Uy, Initial residual = 0.100991453255, Final residual = 8.04840397519e-09, No Iterations 8
DILUPBiCGStab:  Solving for Uz, Initial residual = 0.605252401671, Final residual = 2.85343698987e-09, No Iterations 8
DICPCG:  Solving for p, Initial residual = 0.018175485815, Final residual = 0.000172197042328, No Iterations 74
DICPCG:  Solving for p, Initial residual = 0.000171322834131, Final residual = 1.51784624666e-06, No Iterations 78
time step continuity errors : sum local = 7.01892979888e-07, global = 1.51240153746e-07, cumulative = 8.90742353245e-08
DILUPBiCGStab:  Solving for omega, Initial residual = 0.000197040808369, Final residual = 9.42474454233e-09, No Iterations 3
DILUPBiCGStab:  Solving for k, Initial residual = 0.0521688193736, Final residual = 4.63103344184e-09, No Iterations 5
ExecutionTime = 0.283383 s  ClockTime = 0 s

--> FOAM Warning :     functionObjects::volFieldValue minmaxdomain_scalar cannot find required object epsilon
--> FOAM Warning :     functionObjects::volFieldValue minmaxdomain_scalar cannot find required object nuTilda


volFieldValue mindomain_scalar write:
    min() of p = 0.00124052157517 at location (7.96 0.0995649406574 0.1) in cell 2999
    min() of k = 1.730691356e-07 at location (7.96 0.0995649406574 0.1) in cell 2999
    min() of omega = 2.28638102083 at location (6.84 0.0331297396555 0.1) in cell 2554
    min() of nut = 1.9065325203e-11 at location (7.96 0.0995649406574 0.1) in cell 2999
--> FOAM Warning :     functionObjects::volFieldValue mindomain_scalar cannot find required object epsilon
--> FOAM Warning :     functionObjects::volFieldValue mindomain_scalar cannot find required object nuTilda

volFieldValue mindomain_vector write:
    minMag() of U = 0.0394882305424 at location (7.96 0.0995649406574 0.1) in cell 2999

volFieldValue maxdomain_scalar write:
    max() of p = 0.468159350078 at location (0.04 0.0995649406574 0.1) in cell 29
    max() of k = 0.000759720354208 at location (3 0.0916903082292 0.1) in cell 1132
    max() of omega = 9077.69124089 at location (2.36 0.0995649406574 0.1) in cell 899
    max() of nut = 2.99175955596e-05 at location (7.96 0.00560560819348 0.1) in cell 2970
--> FOAM Warning :     functionObjects::volFieldValue maxdomain_scalar cannot find required object epsilon
--> FOAM Warning :     functionObjects::volFieldValue maxdomain_scalar cannot find required object nuTilda

volFieldValue maxdomain_vector write:
    maxMag() of U = 1.24059566805 at location (7.96 0.0331297396555 0.1) in cell 2974

Time = 12s

DILUPBiCGStab:  Solving for Ux, Initial residual = 0.00770385799804, Final residual = 9.22541830656e-09, No Iterations 6
DILUPBiCGStab:  Solving for Uy, Initial residual = 0.0976352117927, Final residual = 9.77538398531e-09, No Iterations 8
DILUPBiCGStab:  Solving for Uz, Initial residual = 0.607471138144, Final residual = 9.84920435511e-09, No Iterations 7
DICPCG:  Solving for p, Initial residual = 0.0172986980623, Final residual = 0.000172024093054, No Iterations 75
DICPCG:  Solving for p, Initial residual = 0.000171169325818, Final residual = 1.50983240852e-06, No Iterations 99
time step continuity errors : sum local = 6.98946667109e-07, global = 4.8321872037e-09, cumulative = 9.39064225282e-08
DILUPBiCGStab:  Solving for omega, Initial residual = 0.000172547166074, Final residual = 6.97783404285e-09, No Iterations 3
DILUPBiCGStab:  Solving for k, Initial residual = 0.0531415399503, Final residual = 5.19425481696e-09, No Iterations 5
ExecutionTime = 0.303681 s  ClockTime = 0 s

--> FOAM Warning :     functionObjects::volFieldValue minmaxdomain_scalar cannot find required object epsilon
--> FOAM Warning :     functionObjects::volFieldValue minmaxdomain_scalar cannot find required object nuTilda


volFieldValue mindomain_scalar write:
    min() of p = 0.00122386515255 at location (7.96 0.0995649406574 0.1) in cell 2999
    min() of k = 1.62715086098e-07 at location (0.12 0.0995649406574 0.1) in cell 59
    min() of omega = 2.23443354405 at location (6.76 0.0331297396555 0.1) in cell 2524
    min() of nut = 1.79247213615e-11 at location (0.12 0.0995649406574 0.1) in cell 59
--> FOAM Warning :     functionObjects::volFieldValue mindomain_scalar cannot find required object epsilon
--> FOAM Warning :     functionObjects::volFieldValue mindomain_scalar cannot find required object nuTilda

volFieldValue mindomain_vector write:
    minMag() of U = 0.0381552646033 at location (7.96 0.0995649406574 0.1) in cell 2999

volFieldValue maxdomain_scalar write:
    max() of p = 0.473640762946 at location (0.04 0.0995649406574 0.1) in cell 29
    max() of k = 0.000981198942975 at location (7.88 0.0901642532855 0.1) in cell 2961
    max() of omega = 9077.69124089 at location (2.36 0.0995649406574 0.1) in cell 899
    max() of nut = 2.91982331954e-05 at location (7.96 0.00560560819348 0.1) in cell 2970
--> FOAM Warning :     functionObjects::volFieldValue maxdomain_scalar cannot find required object epsilon
--> FOAM Warning :     functionObjects::volFieldValue maxdomain_scalar cannot find required object nuTilda

volFieldValue maxdomain_vector write:
    maxMag() of U = 1.25326863945 at location (7.96 0.0331297396555 0.1) in cell 2974

Time = 13s

DILUPBiCGStab:  Solving for Ux, Initial residual = 0.00664916395079, Final residual = 7.5149538168e-09, No Iterations 6
DILUPBiCGStab:  Solving for Uy, Initial residual = 0.097261838735, Final residual = 5.45118764261e-10, No Iterations 9
DILUPBiCGStab:  Solving for Uz, Initial residual = 0.598356144092, Final residual = 9.65436179087e-09, No Iterations 7
DICPCG:  Solving for p, Initial residual = 0.016286983769, Final residual = 0.000110425879649, No Iterations 100
DICPCG:  Solving for p, Initial residual = 0.000108978672174, Final residual = 9.00285837831e-07, No Iterations 7
time step continuity errors : sum local = 4.21186009392e-07, global = -2.51806851931e-08, cumulative = 6.87257373351e-08
DILUPBiCGStab:  Solving for omega, Initial residual = 9.27585059338e-05, Final residual = 5.3091575566e-09, No Iterations 3
DILUPBiCGStab:  Solving for k, Initial residual = 0.0533786097073, Final residual = 3.20881083627e-09, No Iterations 5
ExecutionTime = 0.323462 s  ClockTime = 0 s

--> FOAM Warning :     functionObjects::volFieldValue minmaxdomain_scalar cannot find required object epsilon
--> FOAM Warning :     functionObjects::volFieldValue minmaxdomain_scalar cannot find required object nuTilda


volFieldValue mindomain_scalar write:
    min() of p = 0.00121516712493 at location (7.96 0.0995649406574 0.1) in cell 2999
    min() of k = 1.51758291074e-07 at location (0.12 0.0995649406574 0.1) in cell 59
    min() of omega = 2.19264950408 at location (6.84 0.0331297396555 0.1) in cell 2554
    min() of nut = 1.67177189714e-11 at location (0.12 0.0995649406574 0.1) in cell 59
--> FOAM Warning :     functionObjects::volFieldValue mindomain_scalar cannot find required object epsilon
--> FOAM Warning :     functionObjects::volFieldValue mindomain_scalar cannot find required object nuTilda

volFieldValue mindomain_vector write:
    minMag() of U = 0.0371838563903 at location (7.96 0.0995649406574 0.1) in cell 2999

volFieldValue maxdomain_scalar write:
    max() of p = 0.479853822438 at location (0.04 0.0995649406574 0.1) in cell 29
    max() of k = 0.00125943869156 at location (7.88 0.0901642532855 0.1) in cell 2961
    max() of omega = 9077.69124089 at location (2.36 0.0995649406574 0.1) in cell 899
    max() of nut = 2.79851959083e-05 at location (7.96 0.00560560819348 0.1) in cell 2970
--> FOAM Warning :     functionObjects::volFieldValue maxdomain_scalar cannot find required object epsilon
--> FOAM Warning :     functionObjects::volFieldValue maxdomain_scalar cannot find required object nuTilda

volFieldValue maxdomain_vector write:
    maxMag() of U = 1.26539131138 at location (7.96 0.0331297396555 0.1) in cell 2974

Time = 14s

DILUPBiCGStab:  Solving for Ux, Initial residual = 0.00578365177985, Final residual = 6.53465333953e-09, No Iterations 6
DILUPBiCGStab:  Solving for Uy, Initial residual = 0.0960125359912, Final residual = 4.17490483666e-09, No Iterations 8
DILUPBiCGStab:  Solving for Uz, Initial residual = 0.579248587584, Final residual = 3.15139445614e-09, No Iterations 8
DICPCG:  Solving for p, Initial residual = 0.0154881690966, Final residual = 0.000107972912746, No Iterations 100
DICPCG:  Solving for p, Initial residual = 0.000106152846366, Final residual = 1.02301975863e-06, No Iterations 3
time step continuity errors : sum local = 4.82221496683e-07, global = -1.16127397682e-08, cumulative = 5.71129975669e-08
DILUPBiCGStab:  Solving for omega, Initial residual = 8.24117609415e-05, Final residual = 4.71603666435e-09, No Iterations 3
DILUPBiCGStab:  Solving for k, Initial residual = 0.053032632136, Final residual = 1.71149764639e-09, No Iterations 5
ExecutionTime = 0.342563 s  ClockTime = 0 s

--> FOAM Warning :     functionObjects::volFieldValue minmaxdomain_scalar cannot find required object epsilon
--> FOAM Warning :     functionObjects::volFieldValue minmaxdomain_scalar cannot find required object nuTilda


volFieldValue mindomain_scalar write:
    min() of p = 0.00121506711457 at location (7.96 0.0995649406574 0.1) in cell 2999
    min() of k = 1.43665161239e-07 at location (0.12 0.0995649406574 0.1) in cell 59
    min() of omega = 2.15978260136 at location (7.64 0.0267991468552 0.1) in cell 2853
    min() of nut = 1.58261784221e-11 at location (0.12 0.0995649406574 0.1) in cell 59
--> FOAM Warning :     functionObjects::volFieldValue mindomain_scalar cannot find required object epsilon
--> FOAM Warning :     functionObjects::volFieldValue mindomain_scalar cannot find required object nuTilda

volFieldValue mindomain_vector write:
    minMag() of U = 0.0365420210574 at location (7.96 0.0995649406574 0.1) in cell 2999

volFieldValue maxdomain_scalar write:
    max() of p = 0.486797187134 at location (0.04 0.0995649406574 0.1) in cell 29
    max() of k = 0.00159777396399 at location (7.88 0.0901642532855 0.1) in cell 2961
    max() of omega = 9077.69124089 at location (2.36 0.0995649406574 0.1) in cell 899
    max() of nut = 2.63822338666e-05 at location (7.96 0.00560560819348 0.1) in cell 2970
--> FOAM Warning :     functionObjects::volFieldValue maxdomain_scalar cannot find required object epsilon
--> FOAM Warning :     functionObjects::volFieldValue maxdomain_scalar cannot find required object nuTilda

volFieldValue maxdomain_vector write:
    maxMag() of U = 1.27702150403 at location (7.96 0.0331297396555 0.1) in cell 2974

Time = 15s

DILUPBiCGStab:  Solving for Ux, Initial residual = 0.00517734467526, Final residual = 2.41814546853e-09, No Iterations 7
DILUPBiCGStab:  Solving for Uy, Initial residual = 0.0955837270415, Final residual = 5.20306992826e-10, No Iterations 9
DILUPBiCGStab:  Solving for Uz, Initial residual = 0.581466705266, Final residual = 3.71959612542e-09, No Iterations 7
DICPCG:  Solving for p, Initial residual = 0.014755451349, Final residual = 0.000135850455656, No Iterations 95
DICPCG:  Solving for p, Initial residual = 0.000132934194801, Final residual = 7.90965778637e-07, No Iterations 98
time step continuity errors : sum local = 3.76381432027e-07, global = 5.24620540964e-09, cumulative = 6.23592029766e-08
DILUPBiCGStab:  Solving for omega, Initial residual = 6.59104577594e-05, Final residual = 4.29089369834e-09, No Iterations 3
DILUPBiCGStab:  Solving for k, Initial residual = 0.0520670780506, Final residual = 1.44591156615e-09, No Iterations 5
ExecutionTime = 0.364651 s  ClockTime = 0 s

--> FOAM Warning :     functionObjects::volFieldValue minmaxdomain_scalar cannot find required object epsilon
--> FOAM Warning :     functionObjects::volFieldValue minmaxdomain_scalar cannot find required object nuTilda


volFieldValue mindomain_scalar write:
    min() of p = 0.00122489497354 at location (7.96 0.0995649406574 0.1) in cell 2999
    min() of k = 1.37600690943e-07 at location (0.12 0.0995649406574 0.1) in cell 59
    min() of omega = 2.116325142 at location (7.8 0.0267991468552 0.1) in cell 2913
    min() of nut = 1.51581153502e-11 at location (0.12 0.0995649406574 0.1) in cell 59
--> FOAM Warning :     functionObjects::volFieldValue mindomain_scalar cannot find required object epsilon
--> FOAM Warning :     functionObjects::volFieldValue mindomain_scalar cannot find required object nuTilda

volFieldValue mindomain_vector write:
    minMag() of U = 0.0362204870366 at location (7.96 0.0995649406574 0.1) in cell 2999

volFieldValue maxdomain_scalar write:
    max() of p = 0.494997836503 at location (0.04 0.0995649406574 0.1) in cell 29
    max() of k = 0.00202663599989 at location (7.96 0.0885121358721 0.1) in cell 2990
    max() of omega = 9077.69124089 at location (2.36 0.0995649406574 0.1) in cell 899
    max() of nut = 2.45413092619e-05 at location (7.96 0.00560560819348 0.1) in cell 2970
--> FOAM Warning :     functionObjects::volFieldValue maxdomain_scalar cannot find required object epsilon
--> FOAM Warning :     functionObjects::volFieldValue maxdomain_scalar cannot find required object nuTilda

volFieldValue maxdomain_vector write:
    maxMag() of U = 1.28822724898 at location (7.96 0.0331297396555 0.1) in cell 2974

Time = 16s

DILUPBiCGStab:  Solving for Ux, Initial residual = 0.00510580252173, Final residual = 4.60294772347e-09, No Iterations 7
DILUPBiCGStab:  Solving for Uy, Initial residual = 0.0940054741039, Final residual = 3.14415487793e-09, No Iterations 8
DILUPBiCGStab:  Solving for Uz, Initial residual = 0.563750153084, Final residual = 2.18455136149e-09, No Iterations 8
DICPCG:  Solving for p, Initial residual = 0.0136161293592, Final residual = 8.19540908539e-05, No Iterations 100
DICPCG:  Solving for p, Initial residual = 7.98589793566e-05, Final residual = 5.78392818685e-07, No Iterations 4
time step continuity errors : sum local = 2.77849487016e-07, global = -4.92970294357e-09, cumulative = 5.7429500033e-08
DILUPBiCGStab:  Solving for omega, Initial residual = 5.39068855532e-05, Final residual = 6.35702978877e-09, No Iterations 3
DILUPBiCGStab:  Solving for k, Initial residual = 0.0505469872971, Final residual = 1.23603586216e-09, No Iterations 5
ExecutionTime = 0.38454 s  ClockTime = 0 s

--> FOAM Warning :     functionObjects::volFieldValue minmaxdomain_scalar cannot find required object epsilon
--> FOAM Warning :     functionObjects::volFieldValue minmaxdomain_scalar cannot find required object nuTilda


volFieldValue mindomain_scalar write:
    min() of p = 0.00124599704179 at location (7.96 0.0995649406574 0.1) in cell 2999
    min() of k = 1.33083597991e-07 at location (0.12 0.0995649406574 0.1) in cell 59
    min() of omega = 2.08242063508 at location (7.96 0.0267991468552 0.1) in cell 2973
    min() of nut = 1.46605116278e-11 at location (0.12 0.0995649406574 0.1) in cell 59
--> FOAM Warning :     functionObjects::volFieldValue mindomain_scalar cannot find required object epsilon
--> FOAM Warning :     functionObjects::volFieldValue mindomain_scalar cannot find required object nuTilda

volFieldValue mindomain_vector write:
    minMag() of U = 0.0362159242103 at location (7.96 0.0995649406574 0.1) in cell 2999

volFieldValue maxdomain_scalar write:
    max() of p = 0.504797319165 at location (0.04 0.0995649406574 0.1) in cell 29
    max() of k = 0.00253601739047 at location (7.96 0.0885121358721 0.1) in cell 2990
    max() of omega = 9077.69124089 at location (2.36 0.0995649406574 0.1) in cell 899
    max() of nut = 2.53689998695e-05 at location (7.96 0.0804216342796 0.1) in cell 2986
--> FOAM Warning :     functionObjects::volFieldValue maxdomain_scalar cannot find required object epsilon
--> FOAM Warning :     functionObjects::volFieldValue maxdomain_scalar cannot find required object nuTilda

volFieldValue maxdomain_vector write:
    maxMag() of U = 1.29909329858 at location (7.96 0.0331297396555 0.1) in cell 2974

Time = 17s

DILUPBiCGStab:  Solving for Ux, Initial residual = 0.00536272143054, Final residual = 6.36099550967e-09, No Iterations 6
DILUPBiCGStab:  Solving for Uy, Initial residual = 0.0964211237438, Final residual = 3.73309965616e-09, No Iterations 8
DILUPBiCGStab:  Solving for Uz, Initial residual = 0.582345119468, Final residual = 8.49299241285e-09, No Iterations 7
DICPCG:  Solving for p, Initial residual = 0.0125553327296, Final residual = 9.01552755524e-05, No Iterations 96
DICPCG:  Solving for p, Initial residual = 8.75419845571e-05, Final residual = 7.86326022146e-07, No Iterations 44
time step continuity errors : sum local = 3.80851880982e-07, global = -6.37274226586e-08, cumulative = -6.29792262561e-09
DILUPBiCGStab:  Solving for omega, Initial residual = 7.17569777841e-05, Final residual = 5.73503994695e-09, No Iterations 3
DILUPBiCGStab:  Solving for k, Initial residual = 0.0485033591152, Final residual = 1.12167148508e-09, No Iterations 5
ExecutionTime = 0.404186 s  ClockTime = 0 s

--> FOAM Warning :     functionObjects::volFieldValue minmaxdomain_scalar cannot find required object epsilon
--> FOAM Warning :     functionObjects::volFieldValue minmaxdomain_scalar cannot find required object nuTilda


volFieldValue mindomain_scalar write:
    min() of p = 0.00127991031439 at location (7.96 0.0995649406574 0.1) in cell 2999
    min() of k = 1.29747588049e-07 at location (0.12 0.0995649406574 0.1) in cell 59
    min() of omega = 2.05778276906 at location (7.96 0.0267991468552 0.1) in cell 2973
    min() of nut = 1.42930162092e-11 at location (0.12 0.0995649406574 0.1) in cell 59
--> FOAM Warning :     functionObjects::volFieldValue mindomain_scalar cannot find required object epsilon
--> FOAM Warning :     functionObjects::volFieldValue mindomain_scalar cannot find required object nuTilda

volFieldValue mindomain_vector write:
    minMag() of U = 0.0365341809876 at location (7.96 0.0995649406574 0.1) in cell 2999

volFieldValue maxdomain_scalar write:
    max() of p = 0.515935608808 at location (0.04 0.0995649406574 0.1) in cell 29
    max() of k = 0.0031183220936 at location (7.96 0.0885121358721 0.1) in cell 2990
    max() of omega = 9077.69124089 at location (2.36 0.0995649406574 0.1) in cell 899
    max() of nut = 3.28824453442e-05 at location (7.96 0.0826909898424 0.1) in cell 2987
--> FOAM Warning :     functionObjects::volFieldValue maxdomain_scalar cannot find required object epsilon
--> FOAM Warning :     functionObjects::volFieldValue maxdomain_scalar cannot find required object nuTilda

volFieldValue maxdomain_vector write:
    maxMag() of U = 1.30981387265 at location (7.96 0.0267991468552 0.1) in cell 2973

Time = 18s

DILUPBiCGStab:  Solving for Ux, Initial residual = 0.00581711324321, Final residual = 4.80989393376e-09, No Iterations 6
DILUPBiCGStab:  Solving for Uy, Initial residual = 0.0970407730108, Final residual = 3.22239927519e-09, No Iterations 8
DILUPBiCGStab:  Solving for Uz, Initial residual = 0.579088020234, Final residual = 7.87249716359e-09, No Iterations 7
DICPCG:  Solving for p, Initial residual = 0.0116460591177, Final residual = 5.18221853141e-05, No Iterations 100
DICPCG:  Solving for p, Initial residual = 5.0115468721e-05, Final residual = 2.72257455715e-07, No Iterations 4
time step continuity errors : sum local = 1.32995362303e-07, global = 6.75024786515e-09, cumulative = 4.52325239534e-10
DILUPBiCGStab:  Solving for omega, Initial residual = 7.14236696963e-05, Final residual = 5.81967900713e-09, No Iterations 3
DILUPBiCGStab:  Solving for k, Initial residual = 0.0460060625104, Final residual = 1.95283123439e-09, No Iterations 5
ExecutionTime = 0.426259 s  ClockTime = 0 s

--> FOAM Warning :     functionObjects::volFieldValue minmaxdomain_scalar cannot find required object epsilon
--> FOAM Warning :     functionObjects::volFieldValue minmaxdomain_scalar cannot find required object nuTilda


volFieldValue mindomain_scalar write:
    min() of p = 0.00132830897959 at location (7.96 0.0995649406574 0.1) in cell 2999
    min() of k = 1.27346098524e-07 at location (0.12 0.0995649406574 0.1) in cell 59
    min() of omega = 2.04141133332 at location (7.96 0.0267991468552 0.1) in cell 2973
    min() of nut = 1.40284677177e-11 at location (0.12 0.0995649406574 0.1) in cell 59
--> FOAM Warning :     functionObjects::volFieldValue mindomain_scalar cannot find required object epsilon
--> FOAM Warning :     functionObjects::volFieldValue mindomain_scalar cannot find required object nuTilda

volFieldValue mindomain_vector write:
    minMag() of U = 0.0371798835006 at location (7.96 0.0995649406574 0.1) in cell 2999

volFieldValue maxdomain_scalar write:
    max() of p = 0.528483338825 at location (0.04 0.0995649406574 0.1) in cell 29
    max() of k = 0.00376293689126 at location (7.96 0.0885121358721 0.1) in cell 2990
    max() of omega = 9077.69124089 at location (2.36 0.0995649406574 0.1) in cell 899
    max() of nut = 4.23716007571e-05 at location (7.96 0.0826909898424 0.1) in cell 2987
--> FOAM Warning :     functionObjects::volFieldValue maxdomain_scalar cannot find required object epsilon
--> FOAM Warning :     functionObjects::volFieldValue maxdomain_scalar cannot find required object nuTilda

volFieldValue maxdomain_vector write:
    maxMag() of U = 1.3205025571 at location (7.96 0.0267991468552 0.1) in cell 2973

Time = 19s

DILUPBiCGStab:  Solving for Ux, Initial residual = 0.00634999441758, Final residual = 4.31517484758e-09, No Iterations 6
DILUPBiCGStab:  Solving for Uy, Initial residual = 0.0870496483455, Final residual = 7.92905487599e-09, No Iterations 8
DILUPBiCGStab:  Solving for Uz, Initial residual = 0.583170729527, Final residual = 5.11358527267e-09, No Iterations 7
DICPCG:  Solving for p, Initial residual = 0.0111054734006, Final residual = 6.87847981019e-05, No Iterations 94
DICPCG:  Solving for p, Initial residual = 6.62491914338e-05, Final residual = 5.48711656954e-07, No Iterations 29
time step continuity errors : sum local = 2.70503520128e-07, global = -2.58332095592e-08, cumulative = -2.53808843197e-08
DILUPBiCGStab:  Solving for omega, Initial residual = 8.65545607999e-05, Final residual = 7.58676275089e-09, No Iterations 3
DILUPBiCGStab:  Solving for k, Initial residual = 0.0431294432606, Final residual = 4.80644511944e-09, No Iterations 4
ExecutionTime = 0.445758 s  ClockTime = 1 s

--> FOAM Warning :     functionObjects::volFieldValue minmaxdomain_scalar cannot find required object epsilon
--> FOAM Warning :     functionObjects::volFieldValue minmaxdomain_scalar cannot find required object nuTilda


volFieldValue mindomain_scalar write:
    min() of p = 0.0013923292502 at location (7.96 0.0995649406574 0.1) in cell 2999
    min() of k = 1.25681177024e-07 at location (0.12 0.0995649406574 0.1) in cell 59
    min() of omega = 2.03429332628 at location (7.96 0.0267991468552 0.1) in cell 2973
    min() of nut = 1.3845059684e-11 at location (0.12 0.0995649406574 0.1) in cell 59
--> FOAM Warning :     functionObjects::volFieldValue mindomain_scalar cannot find required object epsilon
--> FOAM Warning :     functionObjects::volFieldValue mindomain_scalar cannot find required object nuTilda

volFieldValue mindomain_vector write:
    minMag() of U = 0.0381558907508 at location (7.96 0.0995649406574 0.1) in cell 2999

volFieldValue maxdomain_scalar write:
    max() of p = 0.54223185628 at location (0.04 0.0995649406574 0.1) in cell 29
    max() of k = 0.00448633894065 at location (7.96 0.0867235495383 0.1) in cell 2989
    max() of omega = 9077.69124089 at location (2.36 0.0995649406574 0.1) in cell 899
    max() of nut = 5.39606967548e-05 at location (7.96 0.0826909898424 0.1) in cell 2987
--> FOAM Warning :     functionObjects::volFieldValue maxdomain_scalar cannot find required object epsilon
--> FOAM Warning :     functionObjects::volFieldValue maxdomain_scalar cannot find required object nuTilda

volFieldValue maxdomain_vector write:
    maxMag() of U = 1.33122353092 at location (7.96 0.0267991468552 0.1) in cell 2973

Time = 20s

DILUPBiCGStab:  Solving for Ux, Initial residual = 0.00693598624711, Final residual = 4.19565228291e-09, No Iterations 6
DILUPBiCGStab:  Solving for Uy, Initial residual = 0.0779550704626, Final residual = 2.55402177185e-09, No Iterations 8
DILUPBiCGStab:  Solving for Uz, Initial residual = 0.573734268523, Final residual = 8.62275481485e-09, No Iterations 7
DICPCG:  Solving for p, Initial residual = 0.0105662117139, Final residual = 6.34932324796e-05, No Iterations 99
DICPCG:  Solving for p, Initial residual = 6.09076101204e-05, Final residual = 2.9328885054e-07, No Iterations 4
time step continuity errors : sum local = 1.45987358577e-07, global = 3.76175056189e-09, cumulative = -2.16191337578e-08
DILUPBiCGStab:  Solving for omega, Initial residual = 9.0450037929e-05, Final residual = 9.53624069274e-09, No Iterations 3
DILUPBiCGStab:  Solving for k, Initial residual = 0.0399634295885, Final residual = 4.10586665946e-09, No Iterations 4
ExecutionTime = 0.466252 s  ClockTime = 1 s

--> FOAM Warning :     functionObjects::volFieldValue minmaxdomain_scalar cannot find required object epsilon
--> FOAM Warning :     functionObjects::volFieldValue minmaxdomain_scalar cannot find required object nuTilda


volFieldValue mindomain_scalar write:
    min() of p = 0.00147317262892 at location (7.96 0.0995649406574 0.1) in cell 2999
    min() of k = 1.24604449634e-07 at location (0.12 0.0995649406574 0.1) in cell 59
    min() of omega = 2.04001068788 at location (7.88 0.0267991468552 0.1) in cell 2943
    min() of nut = 1.3726447213e-11 at location (0.12 0.0995649406574 0.1) in cell 59
--> FOAM Warning :     functionObjects::volFieldValue mindomain_scalar cannot find required object epsilon
--> FOAM Warning :     functionObjects::volFieldValue mindomain_scalar cannot find required object nuTilda

volFieldValue mindomain_vector write:
    minMag() of U = 0.039455588273 at location (7.96 0.0995649406574 0.1) in cell 2999

volFieldValue maxdomain_scalar write:
    max() of p = 0.557543023027 at location (0.04 0.0995649406574 0.1) in cell 29
    max() of k = 0.00524141723804 at location (7.96 0.0867235495383 0.1) in cell 2989
    max() of omega = 9077.69124089 at location (2.36 0.0995649406574 0.1) in cell 899
    max() of nut = 6.7983581779e-05 at location (7.96 0.0804216342796 0.1) in cell 2986
--> FOAM Warning :     functionObjects::volFieldValue maxdomain_scalar cannot find required object epsilon
--> FOAM Warning :     functionObjects::volFieldValue maxdomain_scalar cannot find required object nuTilda

volFieldValue maxdomain_vector write:
    maxMag() of U = 1.34212358971 at location (7.96 0.0267991468552 0.1) in cell 2973

Time = 21s

DILUPBiCGStab:  Solving for Ux, Initial residual = 0.00750378055283, Final residual = 4.49928512628e-09, No Iterations 6
DILUPBiCGStab:  Solving for Uy, Initial residual = 0.0715478423885, Final residual = 6.01826745438e-09, No Iterations 7
DILUPBiCGStab:  Solving for Uz, Initial residual = 0.574990867868, Final residual = 5.90810197722e-09, No Iterations 7
DICPCG:  Solving for p, Initial residual = 0.0100401138828, Final residual = 6.46580090361e-05, No Iterations 99
DICPCG:  Solving for p, Initial residual = 6.18326225573e-05, Final residual = 3.11254839845e-07, No Iterations 4
time step continuity errors : sum local = 1.56367921118e-07, global = 6.18186965106e-09, cumulative = -1.54372641067e-08
DILUPBiCGStab:  Solving for omega, Initial residual = 9.86534212229e-05, Final residual = 1.7405687454e-09, No Iterations 3
DILUPBiCGStab:  Solving for k, Initial residual = 0.0366266052278, Final residual = 3.77303862795e-09, No Iterations 4
ExecutionTime = 0.488859 s  ClockTime = 1 s

--> FOAM Warning :     functionObjects::volFieldValue minmaxdomain_scalar cannot find required object epsilon
--> FOAM Warning :     functionObjects::volFieldValue minmaxdomain_scalar cannot find required object nuTilda


volFieldValue mindomain_scalar write:
    min() of p = 0.00157123105345 at location (7.96 0.0995649406574 0.1) in cell 2999
    min() of k = 1.23986201804e-07 at location (0.12 0.0995649406574 0.1) in cell 59
    min() of omega = 2.06094877521 at location (7.72 0.0267991468552 0.1) in cell 2883
    min() of nut = 1.36583409277e-11 at location (0.12 0.0995649406574 0.1) in cell 59
--> FOAM Warning :     functionObjects::volFieldValue mindomain_scalar cannot find required object epsilon
--> FOAM Warning :     functionObjects::volFieldValue mindomain_scalar cannot find required object nuTilda

volFieldValue mindomain_vector write:
    minMag() of U = 0.0410619574834 at location (7.96 0.0995649406574 0.1) in cell 2999

volFieldValue maxdomain_scalar write:
    max() of p = 0.574493693132 at location (0.04 0.0995649406574 0.1) in cell 29
    max() of k = 0.00599534380041 at location (7.96 0.0867235495383 0.1) in cell 2989
    max() of omega = 9077.69124089 at location (2.36 0.0995649406574 0.1) in cell 899
    max() of nut = 8.44125350984e-05 at location (7.96 0.0804216342796 0.1) in cell 2986
--> FOAM Warning :     functionObjects::volFieldValue maxdomain_scalar cannot find required object epsilon
--> FOAM Warning :     functionObjects::volFieldValue maxdomain_scalar cannot find required object nuTilda

volFieldValue maxdomain_vector write:
    maxMag() of U = 1.35333330967 at location (7.96 0.0267991468552 0.1) in cell 2973

Time = 22s

DILUPBiCGStab:  Solving for Ux, Initial residual = 0.008028782525, Final residual = 4.48274201379e-09, No Iterations 6
DILUPBiCGStab:  Solving for Uy, Initial residual = 0.066339543962, Final residual = 5.70442341969e-09, No Iterations 7
DILUPBiCGStab:  Solving for Uz, Initial residual = 0.574264162321, Final residual = 4.64169475081e-09, No Iterations 7
DICPCG:  Solving for p, Initial residual = 0.00949372406511, Final residual = 6.15286063228e-05, No Iterations 99
DICPCG:  Solving for p, Initial residual = 5.86971440544e-05, Final residual = 3.25079748412e-07, No Iterations 4
time step continuity errors : sum local = 1.64779599338e-07, global = 7.25413270538e-09, cumulative = -8.18313140133e-09
DILUPBiCGStab:  Solving for omega, Initial residual = 0.000101974204427, Final residual = 2.91481247624e-09, No Iterations 3
DILUPBiCGStab:  Solving for k, Initial residual = 0.0332278637299, Final residual = 3.4973771358e-09, No Iterations 4
ExecutionTime = 0.51061 s  ClockTime = 1 s

--> FOAM Warning :     functionObjects::volFieldValue minmaxdomain_scalar cannot find required object epsilon
--> FOAM Warning :     functionObjects::volFieldValue minmaxdomain_scalar cannot find required object nuTilda


volFieldValue mindomain_scalar write:
    min() of p = 0.00168638760606 at location (7.96 0.0995649406574 0.1) in cell 2999
    min() of k = 1.2371998755e-07 at location (0.12 0.0995649406574 0.1) in cell 59
    min() of omega = 2.10119349739 at location (7.48 0.0267991468552 0.1) in cell 2793
    min() of nut = 1.36290147205e-11 at location (0.12 0.0995649406574 0.1) in cell 59
--> FOAM Warning :     functionObjects::volFieldValue mindomain_scalar cannot find required object epsilon
--> FOAM Warning :     functionObjects::volFieldValue mindomain_scalar cannot find required object nuTilda

volFieldValue mindomain_vector write:
    minMag() of U = 0.0429435529072 at location (7.96 0.0995649406574 0.1) in cell 2999

volFieldValue maxdomain_scalar write:
    max() of p = 0.593040581471 at location (0.04 0.0995649406574 0.1) in cell 29
    max() of k = 0.00672237850933 at location (7.96 0.0847872309046 0.1) in cell 2988
    max() of omega = 9077.69124089 at location (2.36 0.0995649406574 0.1) in cell 899
    max() of nut = 0.000102872562576 at location (7.96 0.0804216342796 0.1) in cell 2986
--> FOAM Warning :     functionObjects::volFieldValue maxdomain_scalar cannot find required object epsilon
--> FOAM Warning :     functionObjects::volFieldValue maxdomain_scalar cannot find required object nuTilda

volFieldValue maxdomain_vector write:
    maxMag() of U = 1.36493604701 at location (7.96 0.0267991468552 0.1) in cell 2973

Time = 23s

DILUPBiCGStab:  Solving for Ux, Initial residual = 0.00841777638673, Final residual = 4.17914550495e-09, No Iterations 6
DILUPBiCGStab:  Solving for Uy, Initial residual = 0.0607709831495, Final residual = 8.96572344385e-09, No Iterations 7
DILUPBiCGStab:  Solving for Uz, Initial residual = 0.58408391074, Final residual = 2.00970243801e-09, No Iterations 8
DICPCG:  Solving for p, Initial residual = 0.0089640350647, Final residual = 6.47586118437e-05, No Iterations 99
DICPCG:  Solving for p, Initial residual = 6.16917104946e-05, Final residual = 3.10249039423e-07, No Iterations 4
time step continuity errors : sum local = 1.58529648562e-07, global = 6.1759856199e-09, cumulative = -2.00714578143e-09
DILUPBiCGStab:  Solving for omega, Initial residual = 0.000104843578998, Final residual = 6.98456257696e-09, No Iterations 3
DILUPBiCGStab:  Solving for k, Initial residual = 0.0298675959294, Final residual = 3.19918205334e-09, No Iterations 4
ExecutionTime = 0.530157 s  ClockTime = 1 s

--> FOAM Warning :     functionObjects::volFieldValue minmaxdomain_scalar cannot find required object epsilon
--> FOAM Warning :     functionObjects::volFieldValue minmaxdomain_scalar cannot find required object nuTilda


volFieldValue mindomain_scalar write:
    min() of p = 0.0018177075973 at location (7.96 0.0995649406574 0.1) in cell 2999
    min() of k = 1.23715566835e-07 at location (0.12 0.0995649406574 0.1) in cell 59
    min() of omega = 2.1101160351 at location (7.96 0.0199789247164 0.1) in cell 2972
    min() of nut = 1.36285277338e-11 at location (0.12 0.0995649406574 0.1) in cell 59
--> FOAM Warning :     functionObjects::volFieldValue mindomain_scalar cannot find required object epsilon
--> FOAM Warning :     functionObjects::volFieldValue mindomain_scalar cannot find required object nuTilda

volFieldValue mindomain_vector write:
    minMag() of U = 0.045056026418 at location (7.96 0.0995649406574 0.1) in cell 2999

volFieldValue maxdomain_scalar write:
    max() of p = 0.613002156397 at location (0.04 0.0995649406574 0.1) in cell 29
    max() of k = 0.00744889611797 at location (7.96 0.0847872309046 0.1) in cell 2988
    max() of omega = 9077.69124089 at location (2.36 0.0995649406574 0.1) in cell 899
    max() of nut = 0.000123272271264 at location (7.96 0.0779648893717 0.1) in cell 2985
--> FOAM Warning :     functionObjects::volFieldValue maxdomain_scalar cannot find required object epsilon
--> FOAM Warning :     functionObjects::volFieldValue maxdomain_scalar cannot find required object nuTilda

volFieldValue maxdomain_vector write:
    maxMag() of U = 1.37694441012 at location (7.96 0.0267991468552 0.1) in cell 2973

Time = 24s

DILUPBiCGStab:  Solving for Ux, Initial residual = 0.0087172558673, Final residual = 4.04912831477e-09, No Iterations 6
DILUPBiCGStab:  Solving for Uy, Initial residual = 0.0553176238195, Final residual = 2.07414732128e-09, No Iterations 8
DILUPBiCGStab:  Solving for Uz, Initial residual = 0.577241489706, Final residual = 5.34077081027e-09, No Iterations 7
DICPCG:  Solving for p, Initial residual = 0.0084313740622, Final residual = 7.30343404368e-05, No Iterations 99
DICPCG:  Solving for p, Initial residual = 6.95439364034e-05, Final residual = 4.01773478639e-07, No Iterations 4
time step continuity errors : sum local = 2.06654242405e-07, global = 1.42198456854e-08, cumulative = 1.22126999039e-08
DILUPBiCGStab:  Solving for omega, Initial residual = 0.000104221172482, Final residual = 2.20360088015e-10, No Iterations 4
DILUPBiCGStab:  Solving for k, Initial residual = 0.0265763335481, Final residual = 2.95724489048e-09, No Iterations 4
ExecutionTime = 0.547205 s  ClockTime = 1 s

--> FOAM Warning :     functionObjects::volFieldValue minmaxdomain_scalar cannot find required object epsilon
--> FOAM Warning :     functionObjects::volFieldValue minmaxdomain_scalar cannot find required object nuTilda


volFieldValue mindomain_scalar write:
    min() of p = 0.00196373916793 at location (7.96 0.0995649406574 0.1) in cell 2999
    min() of k = 1.23897371186e-07 at location (0.12 0.0995649406574 0.1) in cell 59
    min() of omega = 2.13010231456 at location (7.96 0.0199789247164 0.1) in cell 2972
    min() of nut = 1.36485553317e-11 at location (0.12 0.0995649406574 0.1) in cell 59
--> FOAM Warning :     functionObjects::volFieldValue mindomain_scalar cannot find required object epsilon
--> FOAM Warning :     functionObjects::volFieldValue mindomain_scalar cannot find required object nuTilda

volFieldValue mindomain_vector write:
    minMag() of U = 0.0473319538933 at location (7.96 0.0995649406574 0.1) in cell 2999

volFieldValue maxdomain_scalar write:
    max() of p = 0.634114290613 at location (0.04 0.0995649406574 0.1) in cell 29
    max() of k = 0.00811149119551 at location (7.96 0.0847872309046 0.1) in cell 2988
    max() of omega = 9077.69124089 at location (2.36 0.0995649406574 0.1) in cell 899
    max() of nut = 0.000145983011211 at location (7.96 0.0779648893717 0.1) in cell 2985
--> FOAM Warning :     functionObjects::volFieldValue maxdomain_scalar cannot find required object epsilon
--> FOAM Warning :     functionObjects::volFieldValue maxdomain_scalar cannot find required object nuTilda

volFieldValue maxdomain_vector write:
    maxMag() of U = 1.38929330324 at location (7.96 0.0267991468552 0.1) in cell 2973

Time = 25s

DILUPBiCGStab:  Solving for Ux, Initial residual = 0.0088778284284, Final residual = 1.24199046314e-09, No Iterations 7
DILUPBiCGStab:  Solving for Uy, Initial residual = 0.0507954292285, Final residual = 2.06763627358e-09, No Iterations 8
DILUPBiCGStab:  Solving for Uz, Initial residual = 0.568370659075, Final residual = 2.22001792299e-09, No Iterations 8
DICPCG:  Solving for p, Initial residual = 0.00793412031751, Final residual = 1.77489320125e-05, No Iterations 100
DICPCG:  Solving for p, Initial residual = 1.69116749673e-05, Final residual = 1.48633985888e-07, No Iterations 3
time step continuity errors : sum local = 7.67900025741e-08, global = 1.8066255701e-10, cumulative = 1.23933624609e-08
DILUPBiCGStab:  Solving for omega, Initial residual = 0.000102320853369, Final residual = 1.61154324628e-09, No Iterations 3
DILUPBiCGStab:  Solving for k, Initial residual = 0.023292899945, Final residual = 2.72528996893e-09, No Iterations 4
ExecutionTime = 0.566124 s  ClockTime = 1 s

--> FOAM Warning :     functionObjects::volFieldValue minmaxdomain_scalar cannot find required object epsilon
--> FOAM Warning :     functionObjects::volFieldValue minmaxdomain_scalar cannot find required object nuTilda


volFieldValue mindomain_scalar write:
    min() of p = 0.00212183783811 at location (7.96 0.0995649406574 0.1) in cell 2999
    min() of k = 1.2420170522e-07 at location (0.12 0.0995649406574 0.1) in cell 59
    min() of omega = 2.17591485382 at location (7.48 0.0199789247164 0.1) in cell 2792
    min() of nut = 1.36820808203e-11 at location (0.12 0.0995649406574 0.1) in cell 59
--> FOAM Warning :     functionObjects::volFieldValue mindomain_scalar cannot find required object epsilon
--> FOAM Warning :     functionObjects::volFieldValue mindomain_scalar cannot find required object nuTilda

volFieldValue mindomain_vector write:
    minMag() of U = 0.0496887560831 at location (7.96 0.0995649406574 0.1) in cell 2999

volFieldValue maxdomain_scalar write:
    max() of p = 0.65595140449 at location (0.04 0.0995649406574 0.1) in cell 29
    max() of k = 0.00869980073548 at location (7.96 0.0826909898424 0.1) in cell 2987
    max() of omega = 9077.69124089 at location (2.36 0.0995649406574 0.1) in cell 899
    max() of nut = 0.000169546660742 at location (7.96 0.0779648893717 0.1) in cell 2985
--> FOAM Warning :     functionObjects::volFieldValue maxdomain_scalar cannot find required object epsilon
--> FOAM Warning :     functionObjects::volFieldValue maxdomain_scalar cannot find required object nuTilda

volFieldValue maxdomain_vector write:
    maxMag() of U = 1.40227692531 at location (7.96 0.0199789247164 0.1) in cell 2972

Time = 26s

DILUPBiCGStab:  Solving for Ux, Initial residual = 0.00891628485204, Final residual = 9.34611462436e-10, No Iterations 7
DILUPBiCGStab:  Solving for Uy, Initial residual = 0.0467519502007, Final residual = 4.79222194467e-09, No Iterations 7
DILUPBiCGStab:  Solving for Uz, Initial residual = 0.562734536065, Final residual = 3.3017128798e-09, No Iterations 8
DICPCG:  Solving for p, Initial residual = 0.00746553641085, Final residual = 6.7265490852e-05, No Iterations 99
DICPCG:  Solving for p, Initial residual = 6.42246203372e-05, Final residual = 4.89775065311e-07, No Iterations 4
time step continuity errors : sum local = 2.53483102388e-07, global = 5.14186251547e-09, cumulative = 1.75352249764e-08
DILUPBiCGStab:  Solving for omega, Initial residual = 9.73482087812e-05, Final residual = 7.20675679539e-09, No Iterations 3
DILUPBiCGStab:  Solving for k, Initial residual = 0.0202199847341, Final residual = 2.56547019391e-09, No Iterations 4
ExecutionTime = 0.584201 s  ClockTime = 1 s

--> FOAM Warning :     functionObjects::volFieldValue minmaxdomain_scalar cannot find required object epsilon
--> FOAM Warning :     functionObjects::volFieldValue minmaxdomain_scalar cannot find required object nuTilda


volFieldValue mindomain_scalar write:
    min() of p = 0.00228874680323 at location (7.96 0.0995649406574 0.1) in cell 2999
    min() of k = 1.24577065819e-07 at location (0.12 0.0995649406574 0.1) in cell 59
    min() of omega = 2.22727217388 at location (7 0.0199789247164 0.1) in cell 2612
    min() of nut = 1.37234306073e-11 at location (0.12 0.0995649406574 0.1) in cell 59
--> FOAM Warning :     functionObjects::volFieldValue mindomain_scalar cannot find required object epsilon
--> FOAM Warning :     functionObjects::volFieldValue mindomain_scalar cannot find required object nuTilda

volFieldValue mindomain_vector write:
    minMag() of U = 0.0520503130509 at location (7.96 0.0995649406574 0.1) in cell 2999

volFieldValue maxdomain_scalar write:
    max() of p = 0.677859215423 at location (0.04 0.0995649406574 0.1) in cell 29
    max() of k = 0.00924962391294 at location (7.96 0.0826909898424 0.1) in cell 2987
    max() of omega = 9077.69124089 at location (2.36 0.0995649406574 0.1) in cell 899
    max() of nut = 0.000195312301741 at location (7.96 0.0753053108735 0.1) in cell 2984
--> FOAM Warning :     functionObjects::volFieldValue maxdomain_scalar cannot find required object epsilon
--> FOAM Warning :     functionObjects::volFieldValue maxdomain_scalar cannot find required object nuTilda

volFieldValue maxdomain_vector write:
    maxMag() of U = 1.41606159007 at location (7.96 0.0199789247164 0.1) in cell 2972

Time = 27s

DILUPBiCGStab:  Solving for Ux, Initial residual = 0.00878150992455, Final residual = 9.14748334336e-10, No Iterations 7
DILUPBiCGStab:  Solving for Uy, Initial residual = 0.0431473703365, Final residual = 3.29162263261e-09, No Iterations 7
DILUPBiCGStab:  Solving for Uz, Initial residual = 0.563084256165, Final residual = 3.57290689052e-09, No Iterations 7
DICPCG:  Solving for p, Initial residual = 0.00706503729742, Final residual = 5.33695247038e-05, No Iterations 99
DICPCG:  Solving for p, Initial residual = 5.11012020308e-05, Final residual = 4.82538042959e-07, No Iterations 6
time step continuity errors : sum local = 2.49277174184e-07, global = -2.99078209227e-09, cumulative = 1.45444428841e-08
DILUPBiCGStab:  Solving for omega, Initial residual = 9.02621930685e-05, Final residual = 6.40297372115e-09, No Iterations 3
DILUPBiCGStab:  Solving for k, Initial residual = 0.0174972297286, Final residual = 2.41294734831e-09, No Iterations 4
ExecutionTime = 0.603425 s  ClockTime = 1 s

--> FOAM Warning :     functionObjects::volFieldValue minmaxdomain_scalar cannot find required object epsilon
--> FOAM Warning :     functionObjects::volFieldValue minmaxdomain_scalar cannot find required object nuTilda


volFieldValue mindomain_scalar write:
    min() of p = 0.00246178019101 at location (7.96 0.0995649406574 0.1) in cell 2999
    min() of k = 1.24984673165e-07 at location (0.12 0.0995649406574 0.1) in cell 59
    min() of omega = 2.29144835517 at location (6.52 0.0199789247164 0.1) in cell 2432
    min() of nut = 1.37683327014e-11 at location (0.12 0.0995649406574 0.1) in cell 59
--> FOAM Warning :     functionObjects::volFieldValue mindomain_scalar cannot find required object epsilon
--> FOAM Warning :     functionObjects::volFieldValue mindomain_scalar cannot find required object nuTilda

volFieldValue mindomain_vector write:
    minMag() of U = 0.0543548423606 at location (7.96 0.0995649406574 0.1) in cell 2999

volFieldValue maxdomain_scalar write:
    max() of p = 0.699277280011 at location (0.04 0.0995649406574 0.1) in cell 29
    max() of k = 0.00971213764715 at location (7.96 0.0826909898424 0.1) in cell 2987
    max() of omega = 9077.69124089 at location (2.36 0.0995649406574 0.1) in cell 899
    max() of nut = 0.000221602070195 at location (7.96 0.0753053108735 0.1) in cell 2984
--> FOAM Warning :     functionObjects::volFieldValue maxdomain_scalar cannot find required object epsilon
--> FOAM Warning :     functionObjects::volFieldValue maxdomain_scalar cannot find required object nuTilda

volFieldValue maxdomain_vector write:
    maxMag() of U = 1.42979200604 at location (7.96 0.0199789247164 0.1) in cell 2972

Time = 28s

DILUPBiCGStab:  Solving for Ux, Initial residual = 0.00851791574119, Final residual = 4.59895435263e-09, No Iterations 6
DILUPBiCGStab:  Solving for Uy, Initial residual = 0.0401986763185, Final residual = 8.74678622317e-09, No Iterations 7
DILUPBiCGStab:  Solving for Uz, Initial residual = 0.552888297666, Final residual = 1.54300642473e-09, No Iterations 8
DICPCG:  Solving for p, Initial residual = 0.00669561456225, Final residual = 6.08179816391e-05, No Iterations 99
DICPCG:  Solving for p, Initial residual = 5.84254676803e-05, Final residual = 2.37535744221e-07, No Iterations 4
time step continuity errors : sum local = 1.22001656293e-07, global = 1.30288708994e-08, cumulative = 2.75733137835e-08
DILUPBiCGStab:  Solving for omega, Initial residual = 8.2564358138e-05, Final residual = 5.91670136762e-09, No Iterations 3
DILUPBiCGStab:  Solving for k, Initial residual = 0.0150898075454, Final residual = 2.2955704589e-09, No Iterations 4
ExecutionTime = 0.622418 s  ClockTime = 1 s

--> FOAM Warning :     functionObjects::volFieldValue minmaxdomain_scalar cannot find required object epsilon
--> FOAM Warning :     functionObjects::volFieldValue minmaxdomain_scalar cannot find required object nuTilda


volFieldValue mindomain_scalar write:
    min() of p = 0.0026367939056 at location (7.96 0.0995649406574 0.1) in cell 2999
    min() of k = 1.25396154345e-07 at location (0.12 0.0995649406574 0.1) in cell 59
    min() of omega = 2.35958428528 at location (6.12 0.0199789247164 0.1) in cell 2282
    min() of nut = 1.38136615377e-11 at location (0.12 0.0995649406574 0.1) in cell 59
--> FOAM Warning :     functionObjects::volFieldValue mindomain_scalar cannot find required object epsilon
--> FOAM Warning :     functionObjects::volFieldValue mindomain_scalar cannot find required object nuTilda

volFieldValue mindomain_vector write:
    minMag() of U = 0.0565587852006 at location (7.96 0.0995649406574 0.1) in cell 2999

volFieldValue maxdomain_scalar write:
    max() of p = 0.719709753529 at location (0.04 0.0995649406574 0.1) in cell 29
    max() of k = 0.0101366023175 at location (7.96 0.0804216342796 0.1) in cell 2986
    max() of omega = 9077.69124089 at location (2.36 0.0995649406574 0.1) in cell 899
    max() of nut = 0.000249351867829 at location (7.96 0.0724261927068 0.1) in cell 2983
--> FOAM Warning :     functionObjects::volFieldValue maxdomain_scalar cannot find required object epsilon
--> FOAM Warning :     functionObjects::volFieldValue maxdomain_scalar cannot find required object nuTilda

volFieldValue maxdomain_vector write:
    maxMag() of U = 1.44293598893 at location (7.96 0.0199789247164 0.1) in cell 2972

Time = 29s

DILUPBiCGStab:  Solving for Ux, Initial residual = 0.00821503403635, Final residual = 2.64026262488e-09, No Iterations 6
DILUPBiCGStab:  Solving for Uy, Initial residual = 0.0378447231104, Final residual = 8.33526231904e-09, No Iterations 7
DILUPBiCGStab:  Solving for Uz, Initial residual = 0.541581806151, Final residual = 2.80220496101e-09, No Iterations 8
DICPCG:  Solving for p, Initial residual = 0.00637409653939, Final residual = 5.62293283781e-05, No Iterations 99
DICPCG:  Solving for p, Initial residual = 5.4229780953e-05, Final residual = 5.26117273319e-07, No Iterations 5
time step continuity errors : sum local = 2.67582845457e-07, global = -3.28582493765e-10, cumulative = 2.72447312898e-08
DILUPBiCGStab:  Solving for omega, Initial residual = 7.48642142782e-05, Final residual = 5.44836861874e-09, No Iterations 3
DILUPBiCGStab:  Solving for k, Initial residual = 0.0129956680094, Final residual = 2.13788004312e-09, No Iterations 4
ExecutionTime = 0.640808 s  ClockTime = 1 s

--> FOAM Warning :     functionObjects::volFieldValue minmaxdomain_scalar cannot find required object epsilon
--> FOAM Warning :     functionObjects::volFieldValue minmaxdomain_scalar cannot find required object nuTilda


volFieldValue mindomain_scalar write:
    min() of p = 0.00281011558941 at location (7.96 0.0995649406574 0.1) in cell 2999
    min() of k = 1.25790394584e-07 at location (0.12 0.0995649406574 0.1) in cell 59
[...]
    min() of omega = 2.57485648887 at location (4.52 0.00560560819348 0.1) in cell 1680
    min() of nut = 1.39582695104e-11 at location (0.12 0.0995649406574 0.1) in cell 59
--> FOAM Warning :     functionObjects::volFieldValue mindomain_scalar cannot find required object epsilon
--> FOAM Warning :     functionObjects::volFieldValue mindomain_scalar cannot find required object nuTilda

volFieldValue mindomain_vector write:
    minMag() of U = 0.0639910525744 at location (0.52 0.0995649406574 0.1) in cell 209

volFieldValue maxdomain_scalar write:
    max() of p = 0.71688608192 at location (0.04 0.0995649406574 0.1) in cell 29
    max() of k = 0.00946749218542 at location (7 0.0867235495383 0.1) in cell 2629
    max() of omega = 9077.69124089 at location (2.36 0.0995649406574 0.1) in cell 899
    max() of nut = 0.00050764387641 at location (7.96 0.0331297396555 0.1) in cell 2974
--> FOAM Warning :     functionObjects::volFieldValue maxdomain_scalar cannot find required object epsilon
--> FOAM Warning :     functionObjects::volFieldValue maxdomain_scalar cannot find required object nuTilda

volFieldValue maxdomain_vector write:
    maxMag() of U = 1.35741866573 at location (5.16 0.00560560819348 0.1) in cell 1920

Time = 994s

DILUPBiCGStab:  Solving for Ux, Initial residual = 2.91248695127e-13, Final residual = 6.61725738849e-16, No Iterations 3
DILUPBiCGStab:  Solving for Uy, Initial residual = 3.3329627546e-11, Final residual = 2.2123427986e-13, No Iterations 3
DILUPBiCGStab:  Solving for Uz, Initial residual = 0.5043954482, Final residual = 4.0877109367e-09, No Iterations 8
DICPCG:  Solving for p, Initial residual = 2.21073382085e-11, Final residual = 3.14910211544e-11, No Iterations 3
DICPCG:  Solving for p, Initial residual = 3.29498149239e-11, Final residual = 1.98636766751e-11, No Iterations 3
time step continuity errors : sum local = 7.87314989047e-12, global = 3.74612917173e-12, cumulative = 7.32853377334e-08
DILUPBiCGStab:  Solving for omega, Initial residual = 3.89253101104e-15, Final residual = 1.41608486941e-18, No Iterations 3
DILUPBiCGStab:  Solving for k, Initial residual = 1.47113294248e-13, Final residual = 1.12861805164e-16, No Iterations 3
ExecutionTime = 14.751743 s  ClockTime = 15 s

--> FOAM Warning :     functionObjects::volFieldValue minmaxdomain_scalar cannot find required object epsilon
--> FOAM Warning :     functionObjects::volFieldValue minmaxdomain_scalar cannot find required object nuTilda


volFieldValue mindomain_scalar write:
    min() of p = 0.00288664948448 at location (7.96 0.00560560819348 0.1) in cell 2970
    min() of k = 1.26708860873e-07 at location (0.12 0.0995649406574 0.1) in cell 59
    min() of omega = 2.57485648887 at location (4.52 0.00560560819348 0.1) in cell 1680
    min() of nut = 1.39582695104e-11 at location (0.12 0.0995649406574 0.1) in cell 59
--> FOAM Warning :     functionObjects::volFieldValue mindomain_scalar cannot find required object epsilon
--> FOAM Warning :     functionObjects::volFieldValue mindomain_scalar cannot find required object nuTilda

volFieldValue mindomain_vector write:
    minMag() of U = 0.0639910525744 at location (0.52 0.0995649406574 0.1) in cell 209

volFieldValue maxdomain_scalar write:
    max() of p = 0.716886081919 at location (0.04 0.0995649406574 0.1) in cell 29
    max() of k = 0.00946749218542 at location (7 0.0867235495383 0.1) in cell 2629
    max() of omega = 9077.69124089 at location (2.36 0.0995649406574 0.1) in cell 899
    max() of nut = 0.00050764387641 at location (7.96 0.0331297396555 0.1) in cell 2974
--> FOAM Warning :     functionObjects::volFieldValue maxdomain_scalar cannot find required object epsilon
--> FOAM Warning :     functionObjects::volFieldValue maxdomain_scalar cannot find required object nuTilda

volFieldValue maxdomain_vector write:
    maxMag() of U = 1.35741866573 at location (5.16 0.00560560819348 0.1) in cell 1920

Time = 995s

DILUPBiCGStab:  Solving for Ux, Initial residual = 2.42385779655e-13, Final residual = 9.82302876605e-16, No Iterations 3
DILUPBiCGStab:  Solving for Uy, Initial residual = 3.0145540598e-11, Final residual = 2.57122652562e-14, No Iterations 3
DILUPBiCGStab:  Solving for Uz, Initial residual = 0.494827210811, Final residual = 1.60000601357e-09, No Iterations 8
DICPCG:  Solving for p, Initial residual = 2.1665252558e-11, Final residual = 3.22932680813e-11, No Iterations 3
DICPCG:  Solving for p, Initial residual = 3.38919142843e-11, Final residual = 1.92670351903e-11, No Iterations 3
time step continuity errors : sum local = 7.70955769622e-12, global = 3.74711666468e-12, cumulative = 7.328908485e-08
DILUPBiCGStab:  Solving for omega, Initial residual = 3.89646080999e-15, Final residual = 1.18861245378e-18, No Iterations 3
DILUPBiCGStab:  Solving for k, Initial residual = 1.3970491686e-13, Final residual = 1.39847760664e-16, No Iterations 3
ExecutionTime = 14.766465 s  ClockTime = 15 s

--> FOAM Warning :     functionObjects::volFieldValue minmaxdomain_scalar cannot find required object epsilon
--> FOAM Warning :     functionObjects::volFieldValue minmaxdomain_scalar cannot find required object nuTilda


volFieldValue mindomain_scalar write:
    min() of p = 0.00288664948448 at location (7.96 0.00560560819348 0.1) in cell 2970
    min() of k = 1.26708860873e-07 at location (0.12 0.0995649406574 0.1) in cell 59
    min() of omega = 2.57485648887 at location (4.52 0.00560560819348 0.1) in cell 1680
    min() of nut = 1.39582695104e-11 at location (0.12 0.0995649406574 0.1) in cell 59
--> FOAM Warning :     functionObjects::volFieldValue mindomain_scalar cannot find required object epsilon
--> FOAM Warning :     functionObjects::volFieldValue mindomain_scalar cannot find required object nuTilda

volFieldValue mindomain_vector write:
    minMag() of U = 0.0639910525744 at location (0.52 0.0995649406574 0.1) in cell 209

volFieldValue maxdomain_scalar write:
    max() of p = 0.716886081917 at location (0.04 0.0995649406574 0.1) in cell 29
    max() of k = 0.00946749218542 at location (7 0.0867235495383 0.1) in cell 2629
    max() of omega = 9077.69124089 at location (2.36 0.0995649406574 0.1) in cell 899
    max() of nut = 0.00050764387641 at location (7.96 0.0331297396555 0.1) in cell 2974
--> FOAM Warning :     functionObjects::volFieldValue maxdomain_scalar cannot find required object epsilon
--> FOAM Warning :     functionObjects::volFieldValue maxdomain_scalar cannot find required object nuTilda

volFieldValue maxdomain_vector write:
    maxMag() of U = 1.35741866573 at location (5.16 0.00560560819348 0.1) in cell 1920

Time = 996s

DILUPBiCGStab:  Solving for Ux, Initial residual = 2.2112199347e-13, Final residual = 1.09650557438e-15, No Iterations 3
DILUPBiCGStab:  Solving for Uy, Initial residual = 2.83128182237e-11, Final residual = 3.79283794713e-14, No Iterations 3
DILUPBiCGStab:  Solving for Uz, Initial residual = 0.520770546564, Final residual = 4.19957923349e-09, No Iterations 8
DICPCG:  Solving for p, Initial residual = 2.18883591366e-11, Final residual = 3.34074366669e-11, No Iterations 3
DICPCG:  Solving for p, Initial residual = 3.51221986986e-11, Final residual = 1.9655756802e-11, No Iterations 3
time step continuity errors : sum local = 7.81023332132e-12, global = 3.74566009392e-12, cumulative = 7.32928305101e-08
DILUPBiCGStab:  Solving for omega, Initial residual = 4.05949316507e-15, Final residual = 8.82173565943e-19, No Iterations 3
DILUPBiCGStab:  Solving for k, Initial residual = 1.33145719374e-13, Final residual = 1.32322431264e-16, No Iterations 3
ExecutionTime = 14.78099 s  ClockTime = 15 s

--> FOAM Warning :     functionObjects::volFieldValue minmaxdomain_scalar cannot find required object epsilon
--> FOAM Warning :     functionObjects::volFieldValue minmaxdomain_scalar cannot find required object nuTilda


volFieldValue mindomain_scalar write:
    min() of p = 0.00288664948448 at location (7.96 0.00560560819348 0.1) in cell 2970
    min() of k = 1.26708860873e-07 at location (0.12 0.0995649406574 0.1) in cell 59
    min() of omega = 2.57485648886 at location (4.52 0.00560560819348 0.1) in cell 1680
    min() of nut = 1.39582695104e-11 at location (0.12 0.0995649406574 0.1) in cell 59
--> FOAM Warning :     functionObjects::volFieldValue mindomain_scalar cannot find required object epsilon
--> FOAM Warning :     functionObjects::volFieldValue mindomain_scalar cannot find required object nuTilda

volFieldValue mindomain_vector write:
    minMag() of U = 0.0639910525744 at location (0.52 0.0995649406574 0.1) in cell 209

volFieldValue maxdomain_scalar write:
    max() of p = 0.716886081915 at location (0.04 0.0995649406574 0.1) in cell 29
    max() of k = 0.00946749218542 at location (7 0.0867235495383 0.1) in cell 2629
    max() of omega = 9077.69124089 at location (2.36 0.0995649406574 0.1) in cell 899
    max() of nut = 0.00050764387641 at location (7.96 0.0331297396555 0.1) in cell 2974
--> FOAM Warning :     functionObjects::volFieldValue maxdomain_scalar cannot find required object epsilon
--> FOAM Warning :     functionObjects::volFieldValue maxdomain_scalar cannot find required object nuTilda

volFieldValue maxdomain_vector write:
    maxMag() of U = 1.35741866573 at location (5.16 0.00560560819348 0.1) in cell 1920

Time = 997s

DILUPBiCGStab:  Solving for Ux, Initial residual = 2.04321568056e-13, Final residual = 8.19618477285e-16, No Iterations 3
DILUPBiCGStab:  Solving for Uy, Initial residual = 3.1661376152e-11, Final residual = 3.22796740883e-14, No Iterations 3
DILUPBiCGStab:  Solving for Uz, Initial residual = 0.494463693306, Final residual = 5.65158671446e-09, No Iterations 7
DICPCG:  Solving for p, Initial residual = 2.19304442455e-11, Final residual = 3.16838981918e-11, No Iterations 3
DICPCG:  Solving for p, Initial residual = 3.35030736899e-11, Final residual = 1.91103263964e-11, No Iterations 3
time step continuity errors : sum local = 7.70435534401e-12, global = 3.73758879078e-12, cumulative = 7.32965680989e-08
DILUPBiCGStab:  Solving for omega, Initial residual = 4.00522443552e-15, Final residual = 1.51462815531e-18, No Iterations 3
DILUPBiCGStab:  Solving for k, Initial residual = 1.20522501328e-13, Final residual = 1.24415226921e-16, No Iterations 3
ExecutionTime = 14.794648 s  ClockTime = 15 s

--> FOAM Warning :     functionObjects::volFieldValue minmaxdomain_scalar cannot find required object epsilon
--> FOAM Warning :     functionObjects::volFieldValue minmaxdomain_scalar cannot find required object nuTilda


volFieldValue mindomain_scalar write:
    min() of p = 0.00288664948447 at location (7.96 0.00560560819348 0.1) in cell 2970
    min() of k = 1.26708860873e-07 at location (0.12 0.0995649406574 0.1) in cell 59
    min() of omega = 2.57485648886 at location (4.52 0.00560560819348 0.1) in cell 1680
    min() of nut = 1.39582695104e-11 at location (0.12 0.0995649406574 0.1) in cell 59
--> FOAM Warning :     functionObjects::volFieldValue mindomain_scalar cannot find required object epsilon
--> FOAM Warning :     functionObjects::volFieldValue mindomain_scalar cannot find required object nuTilda

volFieldValue mindomain_vector write:
    minMag() of U = 0.0639910525745 at location (0.52 0.0995649406574 0.1) in cell 209

volFieldValue maxdomain_scalar write:
    max() of p = 0.716886081914 at location (0.04 0.0995649406574 0.1) in cell 29
    max() of k = 0.00946749218542 at location (7 0.0867235495383 0.1) in cell 2629
    max() of omega = 9077.69124089 at location (2.36 0.0995649406574 0.1) in cell 899
    max() of nut = 0.00050764387641 at location (7.96 0.0331297396555 0.1) in cell 2974
--> FOAM Warning :     functionObjects::volFieldValue maxdomain_scalar cannot find required object epsilon
--> FOAM Warning :     functionObjects::volFieldValue maxdomain_scalar cannot find required object nuTilda

volFieldValue maxdomain_vector write:
    maxMag() of U = 1.35741866573 at location (5.16 0.00560560819348 0.1) in cell 1920

Time = 998s

DILUPBiCGStab:  Solving for Ux, Initial residual = 2.009690778e-13, Final residual = 7.95862806414e-16, No Iterations 3
DILUPBiCGStab:  Solving for Uy, Initial residual = 2.89570638118e-11, Final residual = 3.262807314e-14, No Iterations 3
DILUPBiCGStab:  Solving for Uz, Initial residual = 0.506645503099, Final residual = 4.71817029029e-09, No Iterations 7
DICPCG:  Solving for p, Initial residual = 2.16059211024e-11, Final residual = 3.34629378396e-11, No Iterations 3
DICPCG:  Solving for p, Initial residual = 3.47569513958e-11, Final residual = 1.94962921805e-11, No Iterations 3
time step continuity errors : sum local = 7.84457320674e-12, global = 3.72582412789e-12, cumulative = 7.3300293923e-08
DILUPBiCGStab:  Solving for omega, Initial residual = 3.80868108179e-15, Final residual = 9.86500179271e-19, No Iterations 3
DILUPBiCGStab:  Solving for k, Initial residual = 1.18642649172e-13, Final residual = 1.06517725622e-16, No Iterations 3
ExecutionTime = 14.807623 s  ClockTime = 15 s

--> FOAM Warning :     functionObjects::volFieldValue minmaxdomain_scalar cannot find required object epsilon
--> FOAM Warning :     functionObjects::volFieldValue minmaxdomain_scalar cannot find required object nuTilda


volFieldValue mindomain_scalar write:
    min() of p = 0.00288664948447 at location (7.96 0.00560560819348 0.1) in cell 2970
    min() of k = 1.26708860873e-07 at location (0.12 0.0995649406574 0.1) in cell 59
    min() of omega = 2.57485648886 at location (4.52 0.00560560819348 0.1) in cell 1680
    min() of nut = 1.39582695104e-11 at location (0.12 0.0995649406574 0.1) in cell 59
--> FOAM Warning :     functionObjects::volFieldValue mindomain_scalar cannot find required object epsilon
--> FOAM Warning :     functionObjects::volFieldValue mindomain_scalar cannot find required object nuTilda

volFieldValue mindomain_vector write:
    minMag() of U = 0.0639910525745 at location (0.52 0.0995649406574 0.1) in cell 209

volFieldValue maxdomain_scalar write:
    max() of p = 0.716886081912 at location (0.04 0.0995649406574 0.1) in cell 29
    max() of k = 0.00946749218542 at location (7 0.0867235495383 0.1) in cell 2629
    max() of omega = 9077.69124089 at location (2.36 0.0995649406574 0.1) in cell 899
    max() of nut = 0.000507643876409 at location (7.96 0.0331297396555 0.1) in cell 2974
--> FOAM Warning :     functionObjects::volFieldValue maxdomain_scalar cannot find required object epsilon
--> FOAM Warning :     functionObjects::volFieldValue maxdomain_scalar cannot find required object nuTilda

volFieldValue maxdomain_vector write:
    maxMag() of U = 1.35741866573 at location (5.16 0.00560560819348 0.1) in cell 1920

Time = 999s

DILUPBiCGStab:  Solving for Ux, Initial residual = 2.26623830571e-13, Final residual = 5.84504086512e-16, No Iterations 3
DILUPBiCGStab:  Solving for Uy, Initial residual = 3.05973156829e-11, Final residual = 3.04171099583e-14, No Iterations 3
DILUPBiCGStab:  Solving for Uz, Initial residual = 0.528303724012, Final residual = 4.37196121011e-09, No Iterations 7
DICPCG:  Solving for p, Initial residual = 2.16269377412e-11, Final residual = 3.3495879143e-11, No Iterations 3
DICPCG:  Solving for p, Initial residual = 3.52041248855e-11, Final residual = 1.91067522411e-11, No Iterations 3
time step continuity errors : sum local = 7.58846524808e-12, global = 3.71006405564e-12, cumulative = 7.33040039871e-08
DILUPBiCGStab:  Solving for omega, Initial residual = 3.86573900114e-15, Final residual = 8.07370269526e-19, No Iterations 3
DILUPBiCGStab:  Solving for k, Initial residual = 1.09574962415e-13, Final residual = 1.35664527379e-16, No Iterations 3
ExecutionTime = 14.820425 s  ClockTime = 15 s

--> FOAM Warning :     functionObjects::volFieldValue minmaxdomain_scalar cannot find required object epsilon
--> FOAM Warning :     functionObjects::volFieldValue minmaxdomain_scalar cannot find required object nuTilda


volFieldValue mindomain_scalar write:
    min() of p = 0.00288664948446 at location (7.96 0.00560560819348 0.1) in cell 2970
    min() of k = 1.26708860873e-07 at location (0.12 0.0995649406574 0.1) in cell 59
    min() of omega = 2.57485648886 at location (4.52 0.00560560819348 0.1) in cell 1680
    min() of nut = 1.39582695104e-11 at location (0.12 0.0995649406574 0.1) in cell 59
--> FOAM Warning :     functionObjects::volFieldValue mindomain_scalar cannot find required object epsilon
--> FOAM Warning :     functionObjects::volFieldValue mindomain_scalar cannot find required object nuTilda

volFieldValue mindomain_vector write:
    minMag() of U = 0.0639910525745 at location (0.52 0.0995649406574 0.1) in cell 209

volFieldValue maxdomain_scalar write:
    max() of p = 0.71688608191 at location (0.04 0.0995649406574 0.1) in cell 29
    max() of k = 0.00946749218542 at location (7 0.0867235495383 0.1) in cell 2629
    max() of omega = 9077.69124089 at location (2.36 0.0995649406574 0.1) in cell 899
    max() of nut = 0.000507643876409 at location (7.96 0.0331297396555 0.1) in cell 2974
--> FOAM Warning :     functionObjects::volFieldValue maxdomain_scalar cannot find required object epsilon
--> FOAM Warning :     functionObjects::volFieldValue maxdomain_scalar cannot find required object nuTilda

volFieldValue maxdomain_vector write:
    maxMag() of U = 1.35741866573 at location (5.16 0.00560560819348 0.1) in cell 1920

Time = 1000s

DILUPBiCGStab:  Solving for Ux, Initial residual = 2.20523877936e-13, Final residual = 4.1452155097e-16, No Iterations 3
DILUPBiCGStab:  Solving for Uy, Initial residual = 2.87219663744e-11, Final residual = 4.34110701182e-14, No Iterations 3
DILUPBiCGStab:  Solving for Uz, Initial residual = 0.541768807333, Final residual = 9.229670171e-09, No Iterations 7
DICPCG:  Solving for p, Initial residual = 2.14376389534e-11, Final residual = 3.15527905597e-11, No Iterations 3
DICPCG:  Solving for p, Initial residual = 3.29194798655e-11, Final residual = 1.9442154011e-11, No Iterations 3
time step continuity errors : sum local = 7.83300342992e-12, global = 3.69251802838e-12, cumulative = 7.33076965051e-08
DILUPBiCGStab:  Solving for omega, Initial residual = 4.2677025832e-15, Final residual = 7.89413437843e-19, No Iterations 3
DILUPBiCGStab:  Solving for k, Initial residual = 1.13350659182e-13, Final residual = 1.21960959303e-16, No Iterations 3
ExecutionTime = 14.834852 s  ClockTime = 15 s

--> FOAM Warning :     functionObjects::volFieldValue minmaxdomain_scalar cannot find required object epsilon
--> FOAM Warning :     functionObjects::volFieldValue minmaxdomain_scalar cannot find required object nuTilda


volFieldValue mindomain_scalar write:
    min() of p = 0.00288664948445 at location (7.96 0.00560560819348 0.1) in cell 2970
    min() of k = 1.26708860873e-07 at location (0.12 0.0995649406574 0.1) in cell 59
    min() of omega = 2.57485648886 at location (4.52 0.00560560819348 0.1) in cell 1680
    min() of nut = 1.39582695104e-11 at location (0.12 0.0995649406574 0.1) in cell 59
--> FOAM Warning :     functionObjects::volFieldValue mindomain_scalar cannot find required object epsilon
--> FOAM Warning :     functionObjects::volFieldValue mindomain_scalar cannot find required object nuTilda

volFieldValue mindomain_vector write:
    minMag() of U = 0.0639910525745 at location (0.52 0.0995649406574 0.1) in cell 209

volFieldValue maxdomain_scalar write:
    max() of p = 0.716886081909 at location (0.04 0.0995649406574 0.1) in cell 29
    max() of k = 0.00946749218542 at location (7 0.0867235495383 0.1) in cell 2629
    max() of omega = 9077.69124089 at location (2.36 0.0995649406574 0.1) in cell 899
    max() of nut = 0.000507643876409 at location (7.96 0.0331297396555 0.1) in cell 2974
--> FOAM Warning :     functionObjects::volFieldValue maxdomain_scalar cannot find required object epsilon
--> FOAM Warning :     functionObjects::volFieldValue maxdomain_scalar cannot find required object nuTilda

volFieldValue maxdomain_vector write:
    maxMag() of U = 1.35741866573 at location (5.16 0.00560560819348 0.1) in cell 1920

End

