/*---------------------------------------------------------------------------*\
  =========                 |
  \\      /  F ield         | OpenFOAM: The Open Source CFD Toolbox
   \\    /   O peration     | Website:  https://openfoam.org
    \\  /    A nd           | Version:  12
     \\/     M anipulation  |
\*---------------------------------------------------------------------------*/
Build  : 12-86e126a7bc4d
Exec   : foamRun
Date   : Jun 14 2026
Time   : 22:05:21
Host   : "NotebookdoDan"
PID    : 71779
I/O    : uncollated
Case   : /home/danilom/OpenFOAM/danilom-12/run/GT2/RANS/KEpsilon_lowRE_V1
nProcs : 1
sigFpe : Enabling floating point exception trapping (FOAM_SIGFPE).
fileModificationChecking : Monitoring run-time modified files using timeStampMaster (fileModificationSkew 10)
allowSystemOperations : Allowing user-supplied system call operations

// * * * * * * * * * * * * * * * * * * * * * * * * * * * * * * * * * * * * * //
Create time

Create mesh for time = 0

Selecting solver incompressibleFluid
Selecting viscosity model Newtonian
Selecting turbulence model type RAS
Selecting RAS turbulence model kEpsilon
RAS
{
    RASModel        kEpsilon;
    turbulence      on;
    printCoeffs     on;
    Cmu             0.09;
    C1              1.44;
    C2              1.92;
    C3              0;
    sigmak          1;
    sigmaEps        1.3;
}

No MRF models present


SIMPLE: Convergence criteria found
        p: tolerance 1e-06
        U: tolerance 1e-06
        "(k|omega|epsilon)": tolerance 1e-06


SIMPLE: Operating solver in steady-state mode with 1 outer corrector
SIMPLE: Operating solver in SIMPLE mode



Starting time loop

    - selecting all cells
    - selected 7480 cell(s) with volume 2.33333


    - selecting all cells
    - selected 7480 cell(s) with volume 2.33333


    - selecting all cells
    - selected 7480 cell(s) with volume 2.33333


    - selecting all cells
    - selected 7480 cell(s) with volume 2.33333


    - selecting all cells
    - selected 7480 cell(s) with volume 2.33333


    - selecting all cells
    - selected 7480 cell(s) with volume 2.33333




volFieldValue mindomain_scalar write:
    min() of p = 0 at location (0.0015663151 0.0004006648 0.5) in cell 0
    min() of k = 0.00015 at location (0.0015663151 0.0004006648 0.5) in cell 0
    min() of epsilon = 0.01 at location (0.0015663151 0.0004006648 0.5) in cell 0
    min() of nut = 2.025e-07 at location (0.0015663151 0.0004006648 0.5) in cell 0

volFieldValue mindomain_vector write:
    minMag() of U = 1 at location (0.0015663151 0.0004006648 0.5) in cell 0

volFieldValue maxdomain_scalar write:
    max() of p = 0 at location (0.0015663151 0.0004006648 0.5) in cell 0
    max() of k = 0.00015 at location (0.0015663151 0.0004006648 0.5) in cell 0
    max() of epsilon = 0.01 at location (0.0015663151 0.0004006648 0.5) in cell 0
    max() of nut = 2.025e-07 at location (0.0015663151 0.0004006648 0.5) in cell 0

volFieldValue maxdomain_vector write:
    maxMag() of U = 1 at location (0.0015663151 0.0004006648 0.5) in cell 0

yPlus yplus_stats write:
    patch bottom y+ : min = 117.66552, max = 117.66552, average = 117.66552

Time = 1s

DILUPBiCGStab:  Solving for Ux, Initial residual = 1, Final residual = 5.1663786e-15, No Iterations 3
DILUPBiCGStab:  Solving for Uy, Initial residual = 0.99997758, Final residual = 8.5117938e-14, No Iterations 3
DICPCG:  Solving for p, Initial residual = 1, Final residual = 0.0094246847, No Iterations 83
DICPCG:  Solving for p, Initial residual = 6.7160238e-05, Final residual = 5.1127005e-07, No Iterations 36
DICPCG:  Solving for p, Initial residual = 5.1130298e-07, Final residual = 8.8946675e-09, No Iterations 66
time step continuity errors : sum local = 1.0047143e-10, global = -9.9034152e-12, cumulative = -9.9034152e-12
DILUPBiCGStab:  Solving for epsilon, Initial residual = 0.99877841, Final residual = 1.7995477e-20, No Iterations 3
DILUPBiCGStab:  Solving for k, Initial residual = 1, Final residual = 7.9258099e-18, No Iterations 3
ExecutionTime = 0.118721 s  ClockTime = 0 s



volFieldValue mindomain_scalar write:
    min() of p = 2.3232083e-05 at location (1.9686737 0.91041837 0.5) in cell 7479
    min() of k = 8.8092079e-05 at location (-0.20036111 0.91041837 0.5) in cell 5671
    min() of epsilon = 0.0018376116 at location (0.042456348 0.0004006648 0.5) in cell 11
    min() of nut = 1.3078388e-07 at location (-0.28438808 0.91041837 0.5) in cell 5670

volFieldValue mindomain_vector write:
    minMag() of U = 0.78137408 at location (1.9686737 0.0004006648 0.5) in cell 99

volFieldValue maxdomain_scalar write:
    max() of p = 0.003552779 at location (0.0047470663 0.0004006648 0.5) in cell 1
    max() of k = 0.001610378 at location (1.9686737 0.0004006648 0.5) in cell 99
    max() of epsilon = 0.0076931296 at location (0.0080255378 0.0020572852 0.5) in cell 202
    max() of nut = 0.0001270119 at location (1.9686737 0.0004006648 0.5) in cell 99

volFieldValue maxdomain_vector write:
    maxMag() of U = 1.000195 at location (1.9686737 0.0087926364 0.5) in cell 999

yPlus yplus_stats write:
    patch bottom y+ : min = 95.106351, max = 117.06896, average = 108.90053

Time = 2s

DILUPBiCGStab:  Solving for Ux, Initial residual = 0.17345763, Final residual = 8.1071077e-09, No Iterations 3
DILUPBiCGStab:  Solving for Uy, Initial residual = 0.32576769, Final residual = 3.4345655e-09, No Iterations 3
DICPCG:  Solving for p, Initial residual = 0.071933041, Final residual = 0.00055890464, No Iterations 70
DICPCG:  Solving for p, Initial residual = 0.00039260642, Final residual = 3.6132091e-06, No Iterations 40
DICPCG:  Solving for p, Initial residual = 3.6138434e-06, Final residual = 3.4097038e-08, No Iterations 69
time step continuity errors : sum local = 4.1074491e-10, global = -7.0628941e-13, cumulative = -1.0609705e-11
DILUPBiCGStab:  Solving for epsilon, Initial residual = 0.57552743, Final residual = 2.1025055e-20, No Iterations 3
DILUPBiCGStab:  Solving for k, Initial residual = 0.43821557, Final residual = 4.0521935e-15, No Iterations 3
ExecutionTime = 0.141645 s  ClockTime = 0 s



volFieldValue mindomain_scalar write:
    min() of p = 2.1581321e-05 at location (1.9686737 0.91041837 0.5) in cell 7479
    min() of k = 5.3219999e-05 at location (-0.20036111 0.91041837 0.5) in cell 5671
    min() of epsilon = 0.0028200986 at location (1.9686737 0.91041837 0.5) in cell 7479
    min() of nut = 9.0336892e-08 at location (-0.20036111 0.91041837 0.5) in cell 5671

volFieldValue mindomain_vector write:
    minMag() of U = 0.82814304 at location (1.9686737 0.0004006648 0.5) in cell 99

volFieldValue maxdomain_scalar write:
    max() of p = 0.0061770323 at location (0.0047470663 0.0004006648 0.5) in cell 1
    max() of k = 0.0022746464 at location (0.61606728 0.0004006648 0.5) in cell 64
    max() of epsilon = 0.064641075 at location (1.9686737 0.0004006648 0.5) in cell 99
    max() of nut = 1.7148015e-05 at location (0.19659637 0.0004006648 0.5) in cell 35

volFieldValue maxdomain_vector write:
    maxMag() of U = 1.0002853 at location (1.9686737 0.04579955 0.5) in cell 3299

yPlus yplus_stats write:
    patch bottom y+ : min = 99.984337, max = 116.5555, average = 107.22918

Time = 3s

DILUPBiCGStab:  Solving for Ux, Initial residual = 0.037375192, Final residual = 2.9512066e-10, No Iterations 3
DILUPBiCGStab:  Solving for Uy, Initial residual = 0.16426006, Final residual = 6.3861282e-11, No Iterations 3
DICPCG:  Solving for p, Initial residual = 0.047272076, Final residual = 0.00043092161, No Iterations 72
DICPCG:  Solving for p, Initial residual = 0.0003173234, Final residual = 3.1438192e-06, No Iterations 51
DICPCG:  Solving for p, Initial residual = 3.1443441e-06, Final residual = 2.4321233e-08, No Iterations 76
time step continuity errors : sum local = 3.890023e-10, global = -5.5416696e-12, cumulative = -1.6151374e-11
DILUPBiCGStab:  Solving for epsilon, Initial residual = 0.27220099, Final residual = 1.9111728e-20, No Iterations 3
DILUPBiCGStab:  Solving for k, Initial residual = 0.21583508, Final residual = 1.4256547e-17, No Iterations 3
ExecutionTime = 0.172104 s  ClockTime = 0 s



volFieldValue mindomain_scalar write:
    min() of p = 3.1266821e-05 at location (1.9686737 0.91041837 0.5) in cell 7479
    min() of k = 3.2649788e-05 at location (1.9686737 0.91041837 0.5) in cell 7479
    min() of epsilon = 0.001513338 at location (1.9686737 0.91041837 0.5) in cell 7479
    min() of nut = 6.3396794e-08 at location (1.9686737 0.91041837 0.5) in cell 7479

volFieldValue mindomain_vector write:
    minMag() of U = 0.6653732 at location (1.9686737 0.0004006648 0.5) in cell 99

volFieldValue maxdomain_scalar write:
    max() of p = 0.0082902237 at location (0.0047470663 0.0004006648 0.5) in cell 1
    max() of k = 0.0040315243 at location (0.86979998 0.0004006648 0.5) in cell 74
    max() of epsilon = 0.10851448 at location (0.61606728 0.0004006648 0.5) in cell 64
    max() of nut = 1.3915026e-05 at location (1.2131947 0.0004006648 0.5) in cell 84

volFieldValue maxdomain_vector write:
    maxMag() of U = 1.0004762 at location (1.9686737 0.04136179 0.5) in cell 3099

yPlus yplus_stats write:
    patch bottom y+ : min = 82.864974, max = 116.47184, average = 100.07052

Time = 4s

DILUPBiCGStab:  Solving for Ux, Initial residual = 0.021162369, Final residual = 1.1332953e-09, No Iterations 3
DILUPBiCGStab:  Solving for Uy, Initial residual = 0.13917849, Final residual = 1.0027076e-10, No Iterations 3
DICPCG:  Solving for p, Initial residual = 0.037053369, Final residual = 0.00035635788, No Iterations 32
DICPCG:  Solving for p, Initial residual = 0.00036191008, Final residual = 2.9266088e-06, No Iterations 76
DICPCG:  Solving for p, Initial residual = 2.9497397e-06, Final residual = 2.7502164e-08, No Iterations 32
time step continuity errors : sum local = 3.9018656e-10, global = -1.3890636e-11, cumulative = -3.004201e-11
DILUPBiCGStab:  Solving for epsilon, Initial residual = 0.099974041, Final residual = 2.950078e-20, No Iterations 3
DILUPBiCGStab:  Solving for k, Initial residual = 0.099045464, Final residual = 5.8638525e-18, No Iterations 3
ExecutionTime = 0.197684 s  ClockTime = 0 s



volFieldValue mindomain_scalar write:
    min() of p = 3.0160502e-05 at location (1.9686737 0.91041837 0.5) in cell 7479
    min() of k = 2.0318243e-05 at location (1.9686737 0.91041837 0.5) in cell 7479
    min() of epsilon = 0.00081921722 at location (1.9686737 0.91041837 0.5) in cell 7479
    min() of nut = 4.5354013e-08 at location (1.9686737 0.91041837 0.5) in cell 7479

volFieldValue mindomain_vector write:
    minMag() of U = 0.61507756 at location (1.9686737 0.0004006648 0.5) in cell 99

volFieldValue maxdomain_scalar write:
    max() of p = 0.0088408199 at location (0.0047470663 0.0004006648 0.5) in cell 1
    max() of k = 0.0049236967 at location (0.53421066 0.0004006648 0.5) in cell 60
    max() of epsilon = 0.25604763 at location (0.86979998 0.0004006648 0.5) in cell 74
    max() of nut = 9.5840048e-06 at location (0.16255994 0.0004006648 0.5) in cell 31

volFieldValue maxdomain_vector write:
    maxMag() of U = 1.0006391 at location (1.9686737 0.053027488 0.5) in cell 3599

yPlus yplus_stats write:
    patch bottom y+ : min = 77.486449, max = 116.47608, average = 95.823515

Time = 5s

DILUPBiCGStab:  Solving for Ux, Initial residual = 0.014434732, Final residual = 6.2521512e-10, No Iterations 3
DILUPBiCGStab:  Solving for Uy, Initial residual = 0.10493293, Final residual = 2.6964705e-11, No Iterations 3
DICPCG:  Solving for p, Initial residual = 0.03285979, Final residual = 0.00027365646, No Iterations 66
DICPCG:  Solving for p, Initial residual = 0.00030259945, Final residual = 2.5293318e-06, No Iterations 76
DICPCG:  Solving for p, Initial residual = 2.5298583e-06, Final residual = 2.5054008e-08, No Iterations 74
time step continuity errors : sum local = 3.2402252e-10, global = 7.0403558e-12, cumulative = -2.3001654e-11
DILUPBiCGStab:  Solving for epsilon, Initial residual = 0.045966079, Final residual = 1.8527141e-20, No Iterations 3
DILUPBiCGStab:  Solving for k, Initial residual = 0.058111069, Final residual = 3.6500251e-18, No Iterations 3
ExecutionTime = 0.231027 s  ClockTime = 0 s



volFieldValue mindomain_scalar write:
    min() of p = 2.4308023e-05 at location (1.9686737 0.0020572852 0.5) in cell 299
    min() of k = 1.2910726e-05 at location (1.9686737 0.91041837 0.5) in cell 7479
    min() of epsilon = 0.00044812386 at location (1.9686737 0.91041837 0.5) in cell 7479
    min() of nut = 3.3476943e-08 at location (1.9686737 0.91041837 0.5) in cell 7479

volFieldValue mindomain_vector write:
    minMag() of U = 0.54007555 at location (1.9686737 0.0004006648 0.5) in cell 99

volFieldValue maxdomain_scalar write:
    max() of p = 0.0089373471 at location (0.0015663151 0.0004006648 0.5) in cell 0
    max() of k = 0.0054858733 at location (0.36810195 0.0004006648 0.5) in cell 50
    max() of epsilon = 0.34558412 at location (0.53421066 0.0004006648 0.5) in cell 60
    max() of nut = 8.6333235e-06 at location (0.10568532 0.0004006648 0.5) in cell 23

volFieldValue maxdomain_vector write:
    maxMag() of U = 1.0007796 at location (1.9686737 0.061003917 0.5) in cell 3899

yPlus yplus_stats write:
    patch bottom y+ : min = 69.373757, max = 116.43268, average = 91.300272

Time = 6s

DILUPBiCGStab:  Solving for Ux, Initial residual = 0.0099798595, Final residual = 5.684519e-10, No Iterations 3
DILUPBiCGStab:  Solving for Uy, Initial residual = 0.080642637, Final residual = 4.3361532e-11, No Iterations 3
DICPCG:  Solving for p, Initial residual = 0.02176101, Final residual = 0.00021582118, No Iterations 66
DICPCG:  Solving for p, Initial residual = 0.00024162031, Final residual = 2.1628348e-06, No Iterations 71
DICPCG:  Solving for p, Initial residual = 2.1632636e-06, Final residual = 1.8244332e-08, No Iterations 66
time step continuity errors : sum local = 2.1691158e-10, global = -2.4425603e-12, cumulative = -2.5444214e-11
DILUPBiCGStab:  Solving for epsilon, Initial residual = 0.025208287, Final residual = 1.5494361e-20, No Iterations 3
DILUPBiCGStab:  Solving for k, Initial residual = 0.0400377, Final residual = 4.1131308e-18, No Iterations 3
ExecutionTime = 0.256278 s  ClockTime = 0 s



volFieldValue mindomain_scalar write:
    min() of p = 1.0835183e-05 at location (1.9686737 0.0020572852 0.5) in cell 299
    min() of k = 8.3998271e-06 at location (1.9686737 0.91041837 0.5) in cell 7479
    min() of epsilon = 0.00024822836 at location (1.9686737 0.91041837 0.5) in cell 7479
    min() of nut = 2.5581841e-08 at location (1.9686737 0.91041837 0.5) in cell 7479

volFieldValue mindomain_vector write:
    minMag() of U = 0.4915396 at location (1.9686737 0.0004006648 0.5) in cell 99

volFieldValue maxdomain_scalar write:
    max() of p = 0.008886957 at location (0.0015663151 0.0004006648 0.5) in cell 0
    max() of k = 0.0058262246 at location (0.24536503 0.0004006648 0.5) in cell 40
    max() of epsilon = 0.40642976 at location (0.36810195 0.0004006648 0.5) in cell 50
    max() of nut = 8.2760973e-06 at location (0.033975179 0.0004006648 0.5) in cell 9

volFieldValue maxdomain_vector write:
    maxMag() of U = 1.0008986 at location (1.9069548 0.020071004 0.5) in cell 1898

yPlus yplus_stats write:
    patch bottom y+ : min = 64.057716, max = 116.36754, average = 87.815433

Time = 7s

DILUPBiCGStab:  Solving for Ux, Initial residual = 0.0073898328, Final residual = 5.5747859e-10, No Iterations 3
DILUPBiCGStab:  Solving for Uy, Initial residual = 0.063131209, Final residual = 3.3103787e-11, No Iterations 3
DICPCG:  Solving for p, Initial residual = 0.015435938, Final residual = 0.00011715777, No Iterations 70
DICPCG:  Solving for p, Initial residual = 0.00012777672, Final residual = 1.2126732e-06, No Iterations 34
DICPCG:  Solving for p, Initial residual = 1.2126924e-06, Final residual = 1.003112e-08, No Iterations 68
time step continuity errors : sum local = 1.1310895e-10, global = 1.8016552e-12, cumulative = -2.3642559e-11
DILUPBiCGStab:  Solving for epsilon, Initial residual = 0.015733105, Final residual = 1.7000625e-20, No Iterations 3
DILUPBiCGStab:  Solving for k, Initial residual = 0.030046155, Final residual = 1.4476343e-17, No Iterations 3
ExecutionTime = 0.278661 s  ClockTime = 0 s



volFieldValue mindomain_scalar write:
    min() of p = -3.9360002e-08 at location (1.9686737 0.0020572852 0.5) in cell 299
    min() of k = 5.6122285e-06 at location (1.9686737 0.91041837 0.5) in cell 7479
    min() of epsilon = 0.00013960054 at location (1.9686737 0.91041837 0.5) in cell 7479
    min() of nut = 2.030608e-08 at location (1.9686737 0.91041837 0.5) in cell 7479

volFieldValue mindomain_vector write:
    minMag() of U = 0.45925523 at location (1.9686737 0.0004006648 0.5) in cell 99

volFieldValue maxdomain_scalar write:
    max() of p = 0.0088015693 at location (0.0015663151 0.0004006648 0.5) in cell 0
    max() of k = 0.0060598946 at location (0.1706868 0.0004006648 0.5) in cell 32
    max() of epsilon = 0.44483369 at location (0.24536503 0.0004006648 0.5) in cell 40
    max() of nut = 8.2090491e-06 at location (0.029923235 0.0004006648 0.5) in cell 8

volFieldValue maxdomain_vector write:
    maxMag() of U = 1.0010006 at location (1.9069548 0.020071004 0.5) in cell 1898

yPlus yplus_stats write:
    patch bottom y+ : min = 60.489417, max = 116.32313, average = 85.132954

Time = 8s

DILUPBiCGStab:  Solving for Ux, Initial residual = 0.0058066966, Final residual = 5.6772909e-10, No Iterations 3
DILUPBiCGStab:  Solving for Uy, Initial residual = 0.05132859, Final residual = 2.7027404e-11, No Iterations 3
DICPCG:  Solving for p, Initial residual = 0.014336565, Final residual = 0.00011653527, No Iterations 67
DICPCG:  Solving for p, Initial residual = 0.00012364637, Final residual = 1.2258562e-06, No Iterations 38
DICPCG:  Solving for p, Initial residual = 1.225828e-06, Final residual = 1.1383708e-08, No Iterations 73
time step continuity errors : sum local = 1.2421576e-10, global = -2.1482413e-12, cumulative = -2.57908e-11
DILUPBiCGStab:  Solving for epsilon, Initial residual = 0.010752465, Final residual = 2.1057197e-20, No Iterations 3
DILUPBiCGStab:  Solving for k, Initial residual = 0.024182704, Final residual = 5.1173301e-17, No Iterations 3
ExecutionTime = 0.305056 s  ClockTime = 0 s



volFieldValue mindomain_scalar write:
    min() of p = -7.9022992e-06 at location (1.9686737 0.0004006648 0.5) in cell 99
    min() of k = 3.8624905e-06 at location (1.9686737 0.91041837 0.5) in cell 7479
    min() of epsilon = 7.9959942e-05 at location (1.9686737 0.91041837 0.5) in cell 7479
    min() of nut = 1.6792095e-08 at location (1.9686737 0.91041837 0.5) in cell 7479

volFieldValue mindomain_vector write:
    minMag() of U = 0.43934133 at location (1.9686737 0.0004006648 0.5) in cell 99

volFieldValue maxdomain_scalar write:
    max() of p = 0.0087183721 at location (0.0015663151 0.0004006648 0.5) in cell 0
    max() of k = 0.0062410988 at location (0.11864039 0.0004006648 0.5) in cell 25
    max() of epsilon = 0.47186139 at location (0.1706868 0.0004006648 0.5) in cell 32
    max() of nut = 8.2022346e-06 at location (0.029923235 0.0004006648 0.5) in cell 8

volFieldValue maxdomain_vector write:
    maxMag() of U = 1.0010954 at location (1.9069548 0.023063183 0.5) in cell 2098

yPlus yplus_stats write:
    patch bottom y+ : min = 58.274465, max = 116.30383, average = 83.137326

Time = 9s

DILUPBiCGStab:  Solving for Ux, Initial residual = 0.0047786932, Final residual = 8.8701639e-10, No Iterations 3
DILUPBiCGStab:  Solving for Uy, Initial residual = 0.043375977, Final residual = 3.5091802e-11, No Iterations 3
DICPCG:  Solving for p, Initial residual = 0.012966737, Final residual = 0.00010483648, No Iterations 70
DICPCG:  Solving for p, Initial residual = 0.00010915618, Final residual = 1.0090447e-06, No Iterations 45
DICPCG:  Solving for p, Initial residual = 1.0090325e-06, Final residual = 8.3633959e-09, No Iterations 71
time step continuity errors : sum local = 8.9261725e-11, global = 1.2214632e-12, cumulative = -2.4569337e-11
DILUPBiCGStab:  Solving for epsilon, Initial residual = 0.0078724498, Final residual = 1.0467257e-19, No Iterations 3
DILUPBiCGStab:  Solving for k, Initial residual = 0.019865393, Final residual = 1.2991756e-16, No Iterations 3
ExecutionTime = 0.328749 s  ClockTime = 0 s



volFieldValue mindomain_scalar write:
    min() of p = -1.4287631e-05 at location (1.9686737 0.0004006648 0.5) in cell 99
    min() of k = 2.746079e-06 at location (1.9686737 0.91041837 0.5) in cell 7479
    min() of epsilon = 4.6819276e-05 at location (1.9686737 0.91041837 0.5) in cell 7479
    min() of nut = 1.4495856e-08 at location (1.9686737 0.91041837 0.5) in cell 7479

volFieldValue mindomain_vector write:
    minMag() of U = 0.42667543 at location (1.9686737 0.0004006648 0.5) in cell 99

volFieldValue maxdomain_scalar write:
    max() of p = 0.0086438024 at location (0.0015663151 0.0004006648 0.5) in cell 0
    max() of k = 0.0065685882 at location (0.038151608 0.0004006648 0.5) in cell 10
    max() of epsilon = 0.49318337 at location (0.11864039 0.0004006648 0.5) in cell 25
    max() of nut = 8.214083e-06 at location (0.029923235 0.0004006648 0.5) in cell 8

volFieldValue maxdomain_vector write:
    maxMag() of U = 1.0011871 at location (1.9069548 0.021542526 0.5) in cell 1998

yPlus yplus_stats write:
    patch bottom y+ : min = 56.859841, max = 116.29936, average = 81.667738

Time = 10s

DILUPBiCGStab:  Solving for Ux, Initial residual = 0.0040617715, Final residual = 5.5684131e-10, No Iterations 3
DILUPBiCGStab:  Solving for Uy, Initial residual = 0.03773857, Final residual = 1.2218608e-11, No Iterations 3
DICPCG:  Solving for p, Initial residual = 0.01210159, Final residual = 0.0001146651, No Iterations 69
DICPCG:  Solving for p, Initial residual = 0.00011760454, Final residual = 9.4195362e-07, No Iterations 67
DICPCG:  Solving for p, Initial residual = 9.419533e-07, Final residual = 8.3726434e-09, No Iterations 76
time step continuity errors : sum local = 8.8421796e-11, global = 4.8544548e-12, cumulative = -1.9714882e-11
DILUPBiCGStab:  Solving for epsilon, Initial residual = 0.0062349194, Final residual = 3.832846e-18, No Iterations 3
DILUPBiCGStab:  Solving for k, Initial residual = 0.016693719, Final residual = 3.9581808e-16, No Iterations 3
ExecutionTime = 0.358153 s  ClockTime = 0 s



volFieldValue mindomain_scalar write:
    min() of p = -1.9812325e-05 at location (1.9686737 0.0004006648 0.5) in cell 99
    min() of k = 2.0215865e-06 at location (1.9686737 0.91041837 0.5) in cell 7479
    min() of epsilon = 2.8143537e-05 at location (1.9686737 0.91041837 0.5) in cell 7479
    min() of nut = 1.3069185e-08 at location (1.9686737 0.91041837 0.5) in cell 7479

volFieldValue mindomain_vector write:
    minMag() of U = 0.41762997 at location (1.9686737 0.0004006648 0.5) in cell 99

volFieldValue maxdomain_scalar write:
    max() of p = 0.0085796138 at location (0.0015663151 0.0004006648 0.5) in cell 0
    max() of k = 0.0069711054 at location (0.033975179 0.0004006648 0.5) in cell 9
    max() of epsilon = 0.53250647 at location (0.038151608 0.0004006648 0.5) in cell 10
    max() of nut = 8.2300724e-06 at location (0.029923235 0.0004006648 0.5) in cell 8

volFieldValue maxdomain_vector write:
    maxMag() of U = 1.0012786 at location (1.9069548 0.015935632 0.5) in cell 1598

yPlus yplus_stats write:
    patch bottom y+ : min = 55.846687, max = 116.29926, average = 80.58217

Time = 11s

DILUPBiCGStab:  Solving for Ux, Initial residual = 0.0035414978, Final residual = 2.2072378e-09, No Iterations 3
DILUPBiCGStab:  Solving for Uy, Initial residual = 0.033420115, Final residual = 9.3878659e-12, No Iterations 3
DICPCG:  Solving for p, Initial residual = 0.010786069, Final residual = 9.7499962e-05, No Iterations 56
DICPCG:  Solving for p, Initial residual = 9.8892049e-05, Final residual = 7.9712519e-07, No Iterations 69
DICPCG:  Solving for p, Initial residual = 7.9728348e-07, Final residual = 8.6034629e-09, No Iterations 61
time step continuity errors : sum local = 9.0448398e-11, global = -2.9874482e-12, cumulative = -2.270233e-11
DILUPBiCGStab:  Solving for epsilon, Initial residual = 0.0052676693, Final residual = 5.5243755e-16, No Iterations 3
DILUPBiCGStab:  Solving for k, Initial residual = 0.014329777, Final residual = 1.3510675e-15, No Iterations 3
ExecutionTime = 0.394497 s  ClockTime = 0 s



volFieldValue mindomain_scalar write:
    min() of p = -2.520256e-05 at location (1.9686737 0.0004006648 0.5) in cell 99
    min() of k = 1.5432222e-06 at location (1.9686737 0.91041837 0.5) in cell 7479
    min() of epsilon = 1.744551e-05 at location (1.9686737 0.91041837 0.5) in cell 7479
    min() of nut = 1.2286148e-08 at location (1.9686737 0.91041837 0.5) in cell 7479

volFieldValue mindomain_vector write:
    minMag() of U = 0.41034961 at location (1.9686737 0.0004006648 0.5) in cell 99

volFieldValue maxdomain_scalar write:
    max() of p = 0.0085299554 at location (0.0015663151 0.0004006648 0.5) in cell 0
    max() of k = 0.0072999896 at location (0.033975179 0.0004006648 0.5) in cell 9
    max() of epsilon = 0.58219612 at location (0.033975179 0.0004006648 0.5) in cell 9
    max() of nut = 8.8027773e-06 at location (0.81273313 0.001215373 0.5) in cell 172

volFieldValue maxdomain_vector write:
    maxMag() of U = 1.0013709 at location (1.9069548 0.017269069 0.5) in cell 1698

yPlus yplus_stats write:
    patch bottom y+ : min = 55.029452, max = 116.29961, average = 79.767129

Time = 12s

DILUPBiCGStab:  Solving for Ux, Initial residual = 0.0031305008, Final residual = 7.5495451e-10, No Iterations 3
DILUPBiCGStab:  Solving for Uy, Initial residual = 0.029948339, Final residual = 2.4387582e-10, No Iterations 3
DICPCG:  Solving for p, Initial residual = 0.0095641021, Final residual = 8.7457565e-05, No Iterations 61
DICPCG:  Solving for p, Initial residual = 8.8091308e-05, Final residual = 8.0223536e-07, No Iterations 73
DICPCG:  Solving for p, Initial residual = 8.02474e-07, Final residual = 9.1450816e-09, No Iterations 36
time step continuity errors : sum local = 9.600965e-11, global = 1.5122383e-11, cumulative = -7.5799472e-12
DILUPBiCGStab:  Solving for epsilon, Initial residual = 0.0045783781, Final residual = 1.9079929e-16, No Iterations 3
DILUPBiCGStab:  Solving for k, Initial residual = 0.012585791, Final residual = 4.1722009e-15, No Iterations 3
ExecutionTime = 0.452994 s  ClockTime = 0 s



volFieldValue mindomain_scalar write:
    min() of p = -3.0307769e-05 at location (1.9686737 0.0004006648 0.5) in cell 99
    min() of k = 1.2218188e-06 at location (1.9686737 0.91041837 0.5) in cell 7479
    min() of epsilon = 1.1199813e-05 at location (1.9686737 0.91041837 0.5) in cell 7479
    min() of nut = 1.1996246e-08 at location (1.9686737 0.91041837 0.5) in cell 7479

volFieldValue mindomain_vector write:
    minMag() of U = 0.40432559 at location (1.9686737 0.0004006648 0.5) in cell 99

volFieldValue maxdomain_scalar write:
    max() of p = 0.0084945922 at location (0.0015663151 0.0004006648 0.5) in cell 0
    max() of k = 0.0075639021 at location (0.033975179 0.0004006648 0.5) in cell 9
    max() of epsilon = 0.62387877 at location (0.033975179 0.0004006648 0.5) in cell 9
    max() of nut = 9.5200719e-06 at location (0.75901753 0.001215373 0.5) in cell 170

volFieldValue maxdomain_vector write:
    maxMag() of U = 1.0014649 at location (1.9069548 0.017269069 0.5) in cell 1698

yPlus yplus_stats write:
    patch bottom y+ : min = 54.35201, max = 116.29968, average = 79.152385

Time = 13s

DILUPBiCGStab:  Solving for Ux, Initial residual = 0.0028059766, Final residual = 5.5936926e-09, No Iterations 3
DILUPBiCGStab:  Solving for Uy, Initial residual = 0.027127897, Final residual = 6.5118205e-11, No Iterations 3
DICPCG:  Solving for p, Initial residual = 0.0093801111, Final residual = 9.3449232e-05, No Iterations 62
DICPCG:  Solving for p, Initial residual = 9.3605422e-05, Final residual = 8.3071684e-07, No Iterations 78
DICPCG:  Solving for p, Initial residual = 8.3134014e-07, Final residual = 9.6985122e-09, No Iterations 34
time step continuity errors : sum local = 1.0195234e-10, global = -3.8904908e-12, cumulative = -1.1470438e-11
DILUPBiCGStab:  Solving for epsilon, Initial residual = 0.0039773505, Final residual = 1.207003e-15, No Iterations 3
DILUPBiCGStab:  Solving for k, Initial residual = 0.011229418, Final residual = 1.0135438e-14, No Iterations 3
ExecutionTime = 0.490312 s  ClockTime = 0 s



volFieldValue mindomain_scalar write:
    min() of p = -3.5115857e-05 at location (1.9686737 0.0004006648 0.5) in cell 99
    min() of k = 1.0021265e-06 at location (1.9686737 0.91041837 0.5) in cell 7479
    min() of epsilon = 7.4729299e-06 at location (1.9686737 0.91041837 0.5) in cell 7479
    min() of nut = 1.2094745e-08 at location (1.9686737 0.91041837 0.5) in cell 7479

volFieldValue mindomain_vector write:
    minMag() of U = 0.3996292 at location (1.9686737 0.0004006648 0.5) in cell 99

volFieldValue maxdomain_scalar write:
    max() of p = 0.0084707353 at location (0.0015663151 0.0004006648 0.5) in cell 0
    max() of k = 0.0077728226 at location (0.033975179 0.0004006648 0.5) in cell 9
    max() of epsilon = 0.65801484 at location (0.033975179 0.0004006648 0.5) in cell 9
    max() of nut = 1.0127052e-05 at location (0.70845637 0.001215373 0.5) in cell 168

volFieldValue maxdomain_vector write:
    maxMag() of U = 1.0015607 at location (1.9069548 0.021542526 0.5) in cell 1998

yPlus yplus_stats write:
    patch bottom y+ : min = 53.82308, max = 116.29989, average = 78.695993

Time = 14s

DILUPBiCGStab:  Solving for Ux, Initial residual = 0.0025487849, Final residual = 3.6158993e-09, No Iterations 3
DILUPBiCGStab:  Solving for Uy, Initial residual = 0.024823731, Final residual = 4.6021011e-10, No Iterations 3
DICPCG:  Solving for p, Initial residual = 0.010379839, Final residual = 8.5619517e-05, No Iterations 38
DICPCG:  Solving for p, Initial residual = 8.5268858e-05, Final residual = 6.423147e-07, No Iterations 78
DICPCG:  Solving for p, Initial residual = 6.4378545e-07, Final residual = 9.7710625e-09, No Iterations 31
time step continuity errors : sum local = 1.0321552e-10, global = 5.5213004e-12, cumulative = -5.9491377e-12
DILUPBiCGStab:  Solving for epsilon, Initial residual = 0.0034107234, Final residual = 6.6285525e-16, No Iterations 3
DILUPBiCGStab:  Solving for k, Initial residual = 0.010052875, Final residual = 2.0290274e-14, No Iterations 3
ExecutionTime = 0.521041 s  ClockTime = 0 s



volFieldValue mindomain_scalar write:
    min() of p = -4.0060075e-05 at location (1.9686737 0.0004006648 0.5) in cell 99
    min() of k = 8.4946393e-07 at location (1.9686737 0.91041837 0.5) in cell 7479
    min() of epsilon = 5.1934559e-06 at location (1.9686737 0.91041837 0.5) in cell 7479
    min() of nut = 1.2504777e-08 at location (1.9686737 0.91041837 0.5) in cell 7479

volFieldValue mindomain_vector write:
    minMag() of U = 0.39612762 at location (1.9686737 0.0004006648 0.5) in cell 99

volFieldValue maxdomain_scalar write:
    max() of p = 0.0084538139 at location (0.0015663151 0.0004006648 0.5) in cell 0
    max() of k = 0.0079355278 at location (0.033975179 0.0004006648 0.5) in cell 9
    max() of epsilon = 0.68546451 at location (0.033975179 0.0004006648 0.5) in cell 9
    max() of nut = 1.0649485e-05 at location (0.68430038 0.001215373 0.5) in cell 167

volFieldValue maxdomain_vector write:
    maxMag() of U = 1.0016571 at location (1.9069548 0.024634616 0.5) in cell 2198

yPlus yplus_stats write:
    patch bottom y+ : min = 53.428259, max = 116.30048, average = 78.369319

Time = 15s

DILUPBiCGStab:  Solving for Ux, Initial residual = 0.0023408198, Final residual = 4.8662394e-09, No Iterations 3
DILUPBiCGStab:  Solving for Uy, Initial residual = 0.022886154, Final residual = 3.6929345e-11, No Iterations 3
DICPCG:  Solving for p, Initial residual = 0.011113311, Final residual = 0.00010495475, No Iterations 32
DICPCG:  Solving for p, Initial residual = 0.00010439199, Final residual = 1.0055602e-06, No Iterations 76
DICPCG:  Solving for p, Initial residual = 1.0071754e-06, Final residual = 9.5674368e-09, No Iterations 38
time step continuity errors : sum local = 1.0170361e-10, global = 6.3350732e-12, cumulative = 3.8593553e-13
DILUPBiCGStab:  Solving for epsilon, Initial residual = 0.0030062199, Final residual = 1.3546435e-15, No Iterations 3
DILUPBiCGStab:  Solving for k, Initial residual = 0.0090206636, Final residual = 4.1884336e-14, No Iterations 3
ExecutionTime = 0.550011 s  ClockTime = 0 s



volFieldValue mindomain_scalar write:
    min() of p = -4.5606122e-05 at location (1.9686737 0.0004006648 0.5) in cell 99
    min() of k = 7.4177934e-07 at location (1.9686737 0.91041837 0.5) in cell 7479
    min() of epsilon = 3.7608514e-06 at location (1.9686737 0.91041837 0.5) in cell 7479
    min() of nut = 1.0164281e-08 at location (1.9686737 0.0047554818 0.5) in cell 599

volFieldValue mindomain_vector write:
    minMag() of U = 0.39333288 at location (1.9686737 0.0004006648 0.5) in cell 99

volFieldValue maxdomain_scalar write:
    max() of p = 0.0084393191 at location (0.0015663151 0.0004006648 0.5) in cell 0
    max() of k = 0.0080598274 at location (0.033975179 0.0004006648 0.5) in cell 9
    max() of epsilon = 0.70709955 at location (0.033975179 0.0004006648 0.5) in cell 9
    max() of nut = 1.1111312e-05 at location (0.63812698 0.001215373 0.5) in cell 165

volFieldValue maxdomain_vector write:
    maxMag() of U = 1.001757 at location (1.1739941 0.0087926364 0.5) in cell 983

yPlus yplus_stats write:
    patch bottom y+ : min = 53.112856, max = 116.30145, average = 78.145639

Time = 16s

DILUPBiCGStab:  Solving for Ux, Initial residual = 0.0021702272, Final residual = 7.3379512e-09, No Iterations 3
DILUPBiCGStab:  Solving for Uy, Initial residual = 0.021183171, Final residual = 6.8935264e-10, No Iterations 3
DICPCG:  Solving for p, Initial residual = 0.011101208, Final residual = 9.4612419e-05, No Iterations 32
DICPCG:  Solving for p, Initial residual = 9.4026139e-05, Final residual = 8.2783878e-07, No Iterations 78
DICPCG:  Solving for p, Initial residual = 8.2912432e-07, Final residual = 9.1490603e-09, No Iterations 35
time step continuity errors : sum local = 9.7937439e-11, global = 1.0985735e-14, cumulative = 3.9692127e-13
DILUPBiCGStab:  Solving for epsilon, Initial residual = 0.0028381239, Final residual = 2.6179621e-15, No Iterations 3
DILUPBiCGStab:  Solving for k, Initial residual = 0.0081623392, Final residual = 7.1442277e-13, No Iterations 3
ExecutionTime = 0.572983 s  ClockTime = 0 s



volFieldValue mindomain_scalar write:
    min() of p = -5.1592516e-05 at location (1.9686737 0.0004006648 0.5) in cell 99
    min() of k = 6.6486639e-07 at location (1.9686737 0.91041837 0.5) in cell 7479
    min() of epsilon = 2.8341024e-06 at location (1.9686737 0.91041837 0.5) in cell 7479
    min() of nut = 7.1627113e-09 at location (1.9686737 0.0047554818 0.5) in cell 599

volFieldValue mindomain_vector write:
    minMag() of U = 0.39066657 at location (1.9686737 0.0004006648 0.5) in cell 99

volFieldValue maxdomain_scalar write:
    max() of p = 0.0084252134 at location (0.0015663151 0.0004006648 0.5) in cell 0
    max() of k = 0.0081526737 at location (0.033975179 0.0004006648 0.5) in cell 9
    max() of epsilon = 0.72377811 at location (0.033975179 0.0004006648 0.5) in cell 9
    max() of nut = 1.1528185e-05 at location (0.63812698 0.001215373 0.5) in cell 165

volFieldValue maxdomain_vector write:
    maxMag() of U = 1.0018612 at location (1.2131947 0.0087926364 0.5) in cell 984

yPlus yplus_stats write:
    patch bottom y+ : min = 52.811711, max = 116.30265, average = 77.997512

Time = 17s

DILUPBiCGStab:  Solving for Ux, Initial residual = 0.0020218676, Final residual = 8.389349e-09, No Iterations 3
DILUPBiCGStab:  Solving for Uy, Initial residual = 0.01966393, Final residual = 7.5154415e-11, No Iterations 3
DICPCG:  Solving for p, Initial residual = 0.01030086, Final residual = 8.502976e-05, No Iterations 32
DICPCG:  Solving for p, Initial residual = 8.4526339e-05, Final residual = 8.2929401e-07, No Iterations 76
DICPCG:  Solving for p, Initial residual = 8.2979958e-07, Final residual = 8.7095479e-09, No Iterations 39
time step continuity errors : sum local = 9.3845235e-11, global = 1.7219003e-11, cumulative = 1.7615924e-11
DILUPBiCGStab:  Solving for epsilon, Initial residual = 0.0026772059, Final residual = 4.3787718e-15, No Iterations 3
DILUPBiCGStab:  Solving for k, Initial residual = 0.0074936435, Final residual = 2.0064512e-13, No Iterations 3
ExecutionTime = 0.594335 s  ClockTime = 0 s



volFieldValue mindomain_scalar write:
    min() of p = -5.7320972e-05 at location (1.9686737 0.0004006648 0.5) in cell 99
    min() of k = 6.0944247e-07 at location (1.9686737 0.91041837 0.5) in cell 7479
    min() of epsilon = 2.216629e-06 at location (1.9686737 0.91041837 0.5) in cell 7479
    min() of nut = 5.9770926e-09 at location (1.9686737 0.0047554818 0.5) in cell 599

volFieldValue mindomain_vector write:
    minMag() of U = 0.38782181 at location (1.9686737 0.0004006648 0.5) in cell 99

volFieldValue maxdomain_scalar write:
    max() of p = 0.0084139997 at location (0.0015663151 0.0004006648 0.5) in cell 0
    max() of k = 0.0082201889 at location (0.033975179 0.0004006648 0.5) in cell 9
    max() of epsilon = 0.73632057 at location (0.033975179 0.0004006648 0.5) in cell 9
    max() of nut = 1.1908572e-05 at location (0.61606728 0.001215373 0.5) in cell 164

volFieldValue maxdomain_vector write:
    maxMag() of U = 1.0019659 at location (1.2952458 0.0087926364 0.5) in cell 986

yPlus yplus_stats write:
    patch bottom y+ : min = 52.490157, max = 116.30393, average = 77.901275

Time = 18s

DILUPBiCGStab:  Solving for Ux, Initial residual = 0.0018884269, Final residual = 6.6189982e-10, No Iterations 3
DILUPBiCGStab:  Solving for Uy, Initial residual = 0.018320408, Final residual = 1.7214812e-10, No Iterations 3
DICPCG:  Solving for p, Initial residual = 0.0093546337, Final residual = 8.646583e-05, No Iterations 36
DICPCG:  Solving for p, Initial residual = 8.5969285e-05, Final residual = 8.0502948e-07, No Iterations 72
DICPCG:  Solving for p, Initial residual = 8.0356353e-07, Final residual = 9.5818466e-09, No Iterations 44
time step continuity errors : sum local = 1.0397915e-10, global = -3.465669e-12, cumulative = 1.4150255e-11
DILUPBiCGStab:  Solving for epsilon, Initial residual = 0.0024880268, Final residual = 6.450005e-15, No Iterations 3
DILUPBiCGStab:  Solving for k, Initial residual = 0.0070154758, Final residual = 2.1939348e-13, No Iterations 3
ExecutionTime = 0.615503 s  ClockTime = 0 s



volFieldValue mindomain_scalar write:
    min() of p = -6.2179758e-05 at location (1.9686737 0.0004006648 0.5) in cell 99
    min() of k = 5.6934577e-07 at location (1.9686737 0.91041837 0.5) in cell 7479
    min() of epsilon = 1.7930999e-06 at location (1.9686737 0.91041837 0.5) in cell 7479
    min() of nut = 5.5380066e-09 at location (1.9686737 0.0047554818 0.5) in cell 599

volFieldValue mindomain_vector write:
    minMag() of U = 0.38493175 at location (1.9686737 0.0004006648 0.5) in cell 99

volFieldValue maxdomain_scalar write:
    max() of p = 0.0084105571 at location (0.0015663151 0.0004006648 0.5) in cell 0
    max() of k = 0.0082676749 at location (0.033975179 0.0004006648 0.5) in cell 9
    max() of epsilon = 0.74548608 at location (0.033975179 0.0004006648 0.5) in cell 9
    max() of nut = 1.2253597e-05 at location (0.59466511 0.001215373 0.5) in cell 163

volFieldValue maxdomain_vector write:
    maxMag() of U = 1.0020712 at location (1.3381715 0.0098875613 0.5) in cell 1087

yPlus yplus_stats write:
    patch bottom y+ : min = 52.163209, max = 116.30523, average = 77.842019

Time = 19s

DILUPBiCGStab:  Solving for Ux, Initial residual = 0.0017726174, Final residual = 3.2631539e-09, No Iterations 3
DILUPBiCGStab:  Solving for Uy, Initial residual = 0.01719493, Final residual = 2.8788853e-10, No Iterations 3
DICPCG:  Solving for p, Initial residual = 0.0093398292, Final residual = 8.4432665e-05, No Iterations 62
DICPCG:  Solving for p, Initial residual = 8.3465078e-05, Final residual = 8.1239636e-07, No Iterations 75
DICPCG:  Solving for p, Initial residual = 8.1226696e-07, Final residual = 8.9668156e-09, No Iterations 51
time step continuity errors : sum local = 9.8268779e-11, global = -1.3121036e-11, cumulative = 1.0292193e-12
DILUPBiCGStab:  Solving for epsilon, Initial residual = 0.0022250052, Final residual = 8.8897472e-15, No Iterations 3
DILUPBiCGStab:  Solving for k, Initial residual = 0.0065850188, Final residual = 2.557061e-13, No Iterations 3
ExecutionTime = 0.637928 s  ClockTime = 0 s



volFieldValue mindomain_scalar write:
    min() of p = -6.6434574e-05 at location (1.9686737 0.0004006648 0.5) in cell 99
    min() of k = 5.4041398e-07 at location (1.9686737 0.91041837 0.5) in cell 7479
    min() of epsilon = 1.4944686e-06 at location (1.9686737 0.91041837 0.5) in cell 7479
    min() of nut = 5.8630291e-09 at location (1.9686737 0.0047554818 0.5) in cell 599

volFieldValue mindomain_vector write:
    minMag() of U = 0.38232535 at location (1.9686737 0.0004006648 0.5) in cell 99

volFieldValue maxdomain_scalar write:
    max() of p = 0.0084173134 at location (0.0015663151 0.0004006648 0.5) in cell 0
    max() of k = 0.0082996447 at location (0.033975179 0.0004006648 0.5) in cell 9
    max() of epsilon = 0.75195512 at location (0.033975179 0.0004006648 0.5) in cell 9
    max() of nut = 1.2658881e-05 at location (0.785469 0.0020572852 0.5) in cell 271

volFieldValue maxdomain_vector write:
    maxMag() of U = 1.0021779 at location (1.382416 0.0098875613 0.5) in cell 1088

yPlus yplus_stats write:
    patch bottom y+ : min = 51.868114, max = 116.30655, average = 77.813563

Time = 20s

DILUPBiCGStab:  Solving for Ux, Initial residual = 0.0016711718, Final residual = 3.9538368e-09, No Iterations 3
DILUPBiCGStab:  Solving for Uy, Initial residual = 0.016287316, Final residual = 1.0855329e-10, No Iterations 3
DICPCG:  Solving for p, Initial residual = 0.010112012, Final residual = 9.8949401e-05, No Iterations 63
DICPCG:  Solving for p, Initial residual = 9.7584547e-05, Final residual = 8.1998391e-07, No Iterations 73
DICPCG:  Solving for p, Initial residual = 8.1983395e-07, Final residual = 8.8965659e-09, No Iterations 36
time step continuity errors : sum local = 9.8504992e-11, global = -1.450655e-11, cumulative = -1.3477331e-11
DILUPBiCGStab:  Solving for epsilon, Initial residual = 0.001871165, Final residual = 1.1597908e-14, No Iterations 3
DILUPBiCGStab:  Solving for k, Initial residual = 0.0060773337, Final residual = 2.920399e-13, No Iterations 3
ExecutionTime = 0.659611 s  ClockTime = 1 s



volFieldValue mindomain_scalar write:
    min() of p = -7.097158e-05 at location (1.9686737 0.0004006648 0.5) in cell 99
    min() of k = 5.1978253e-07 at location (1.9686737 0.91041837 0.5) in cell 7479
    min() of epsilon = 1.27846e-06 at location (1.9686737 0.91041837 0.5) in cell 7479
    min() of nut = 7.0961753e-09 at location (1.9686737 0.0047554818 0.5) in cell 599

volFieldValue mindomain_vector write:
    minMag() of U = 0.38023259 at location (1.9686737 0.0004006648 0.5) in cell 99

volFieldValue maxdomain_scalar write:
    max() of p = 0.0084311591 at location (0.0015663151 0.0004006648 0.5) in cell 0
    max() of k = 0.008319881 at location (0.033975179 0.0004006648 0.5) in cell 9
    max() of epsilon = 0.75632088 at location (0.033975179 0.0004006648 0.5) in cell 9
    max() of nut = 1.3402457e-05 at location (0.75901753 0.0020572852 0.5) in cell 270

volFieldValue maxdomain_vector write:
    maxMag() of U = 1.0022868 at location (1.4750246 0.0098875613 0.5) in cell 1090

yPlus yplus_stats write:
    patch bottom y+ : min = 51.631008, max = 116.30795, average = 77.814231

Time = 21s

DILUPBiCGStab:  Solving for Ux, Initial residual = 0.0015963999, Final residual = 9.604416e-09, No Iterations 3
DILUPBiCGStab:  Solving for Uy, Initial residual = 0.015516217, Final residual = 1.6672901e-10, No Iterations 3
DICPCG:  Solving for p, Initial residual = 0.010902661, Final residual = 0.00010036474, No Iterations 62
DICPCG:  Solving for p, Initial residual = 9.9089434e-05, Final residual = 8.5215275e-07, No Iterations 76
DICPCG:  Solving for p, Initial residual = 8.5198956e-07, Final residual = 9.6725523e-09, No Iterations 57
time step continuity errors : sum local = 1.0803367e-10, global = -1.0028367e-11, cumulative = -2.3505698e-11
DILUPBiCGStab:  Solving for epsilon, Initial residual = 0.0016339473, Final residual = 1.4370812e-14, No Iterations 3
DILUPBiCGStab:  Solving for k, Initial residual = 0.0055914387, Final residual = 3.7492957e-13, No Iterations 3
ExecutionTime = 0.684218 s  ClockTime = 1 s



volFieldValue mindomain_scalar write:
    min() of p = -7.6460529e-05 at location (1.9686737 0.0004006648 0.5) in cell 99
    min() of k = 5.0544184e-07 at location (1.9686737 0.91041837 0.5) in cell 7479
    min() of epsilon = 1.1185648e-06 at location (1.9686737 0.91041837 0.5) in cell 7479
    min() of nut = 8.4855289e-09 at location (1.9686737 0.0057156019 0.5) in cell 699

volFieldValue mindomain_vector write:
    minMag() of U = 0.37866036 at location (1.9686737 0.0004006648 0.5) in cell 99

volFieldValue maxdomain_scalar write:
    max() of p = 0.0084450609 at location (0.0015663151 0.0004006648 0.5) in cell 0
    max() of k = 0.00833151 at location (0.033975179 0.0004006648 0.5) in cell 9
    max() of epsilon = 0.75908868 at location (0.033975179 0.0004006648 0.5) in cell 9
    max() of nut = 1.408698e-05 at location (0.73335448 0.0020572852 0.5) in cell 269

volFieldValue maxdomain_vector write:
    maxMag() of U = 1.0023972 at location (1.5234735 0.0098875613 0.5) in cell 1091

yPlus yplus_stats write:
    patch bottom y+ : min = 51.452781, max = 116.30941, average = 77.841901

Time = 22s

DILUPBiCGStab:  Solving for Ux, Initial residual = 0.0015349968, Final residual = 4.6284092e-09, No Iterations 3
DILUPBiCGStab:  Solving for Uy, Initial residual = 0.014770603, Final residual = 2.8068325e-10, No Iterations 3
DICPCG:  Solving for p, Initial residual = 0.01117327, Final residual = 0.00011159141, No Iterations 44
DICPCG:  Solving for p, Initial residual = 0.00011047005, Final residual = 8.7935859e-07, No Iterations 74
DICPCG:  Solving for p, Initial residual = 8.7753111e-07, Final residual = 7.1424249e-09, No Iterations 31
time step continuity errors : sum local = 8.0608956e-11, global = -8.1501483e-12, cumulative = -3.1655847e-11
DILUPBiCGStab:  Solving for epsilon, Initial residual = 0.0016008312, Final residual = 3.3810206e-14, No Iterations 3
DILUPBiCGStab:  Solving for k, Initial residual = 0.0052008636, Final residual = 2.0965046e-12, No Iterations 3
ExecutionTime = 0.703271 s  ClockTime = 1 s



volFieldValue mindomain_scalar write:
    min() of p = -8.2772504e-05 at location (1.9686737 0.0004006648 0.5) in cell 99
    min() of k = 4.9595519e-07 at location (1.9686737 0.91041837 0.5) in cell 7479
    min() of epsilon = 9.9774898e-07 at location (1.9686737 0.91041837 0.5) in cell 7479
    min() of nut = 5.8354188e-09 at location (1.9686737 0.0057156019 0.5) in cell 699

volFieldValue mindomain_vector write:
    minMag() of U = 0.37739667 at location (1.9686737 0.0004006648 0.5) in cell 99

volFieldValue maxdomain_scalar write:
    max() of p = 0.008454396 at location (0.0015663151 0.0004006648 0.5) in cell 0
    max() of k = 0.0083370783 at location (0.033975179 0.0004006648 0.5) in cell 9
    max() of epsilon = 0.76068074 at location (0.033975179 0.0004006648 0.5) in cell 9
    max() of nut = 1.4731397e-05 at location (0.73335448 0.0020572852 0.5) in cell 269

volFieldValue maxdomain_vector write:
    maxMag() of U = 1.0025074 at location (1.5234735 0.0098875613 0.5) in cell 1091

yPlus yplus_stats write:
    patch bottom y+ : min = 51.309469, max = 116.31086, average = 77.891297

Time = 23s

DILUPBiCGStab:  Solving for Ux, Initial residual = 0.0014605108, Final residual = 4.6197883e-09, No Iterations 3
DILUPBiCGStab:  Solving for Uy, Initial residual = 0.014004109, Final residual = 6.5888568e-10, No Iterations 3
DICPCG:  Solving for p, Initial residual = 0.010728692, Final residual = 0.00010092517, No Iterations 30
DICPCG:  Solving for p, Initial residual = 0.00010019847, Final residual = 7.4286445e-07, No Iterations 64
DICPCG:  Solving for p, Initial residual = 7.4018075e-07, Final residual = 8.1330397e-09, No Iterations 32
time step continuity errors : sum local = 9.2643712e-11, global = 5.5661062e-12, cumulative = -2.608974e-11
DILUPBiCGStab:  Solving for epsilon, Initial residual = 0.00154234, Final residual = 2.3004453e-14, No Iterations 3
DILUPBiCGStab:  Solving for k, Initial residual = 0.0049136781, Final residual = 1.1050264e-11, No Iterations 3
ExecutionTime = 0.722433 s  ClockTime = 1 s



volFieldValue mindomain_scalar write:
    min() of p = -8.9245891e-05 at location (1.9686737 0.0004006648 0.5) in cell 99
    min() of k = 4.9027629e-07 at location (1.9686737 0.91041837 0.5) in cell 7479
    min() of epsilon = 9.0479917e-07 at location (1.9686737 0.91041837 0.5) in cell 7479
    min() of nut = 4.8130744e-09 at location (1.9686737 0.0057156019 0.5) in cell 699

volFieldValue mindomain_vector write:
    minMag() of U = 0.37617613 at location (1.9686737 0.0004006648 0.5) in cell 99

volFieldValue maxdomain_scalar write:
    max() of p = 0.0084619744 at location (0.0015663151 0.0004006648 0.5) in cell 0
    max() of k = 0.0083386235 at location (0.033975179 0.0004006648 0.5) in cell 9
    max() of epsilon = 0.76144345 at location (0.033975179 0.0004006648 0.5) in cell 9
    max() of nut = 1.5340865e-05 at location (0.70845637 0.0020572852 0.5) in cell 268

volFieldValue maxdomain_vector write:
    maxMag() of U = 1.0026169 at location (1.5734109 0.0098875613 0.5) in cell 1092

yPlus yplus_stats write:
    patch bottom y+ : min = 51.171, max = 116.31226, average = 77.954944

Time = 24s

DILUPBiCGStab:  Solving for Ux, Initial residual = 0.0013841101, Final residual = 4.6700462e-10, No Iterations 3
DILUPBiCGStab:  Solving for Uy, Initial residual = 0.013254758, Final residual = 2.5194634e-10, No Iterations 3
DICPCG:  Solving for p, Initial residual = 0.0093066318, Final residual = 8.938955e-05, No Iterations 53
DICPCG:  Solving for p, Initial residual = 8.8401924e-05, Final residual = 7.8569729e-07, No Iterations 77
DICPCG:  Solving for p, Initial residual = 7.8514661e-07, Final residual = 7.8193378e-09, No Iterations 30
time step continuity errors : sum local = 8.9891138e-11, global = -1.1859246e-11, cumulative = -3.7948986e-11
DILUPBiCGStab:  Solving for epsilon, Initial residual = 0.0014618789, Final residual = 2.5744717e-14, No Iterations 3
DILUPBiCGStab:  Solving for k, Initial residual = 0.0047796391, Final residual = 2.0306607e-12, No Iterations 3
ExecutionTime = 0.750301 s  ClockTime = 1 s



volFieldValue mindomain_scalar write:
    min() of p = -9.4693409e-05 at location (1.9686737 0.0004006648 0.5) in cell 99
    min() of k = 4.8762947e-07 at location (1.9686737 0.91041837 0.5) in cell 7479
    min() of epsilon = 8.321587e-07 at location (1.9686737 0.91041837 0.5) in cell 7479
    min() of nut = 4.2735687e-09 at location (1.9686737 0.0057156019 0.5) in cell 699

volFieldValue mindomain_vector write:
    minMag() of U = 0.37488699 at location (1.9686737 0.0004006648 0.5) in cell 99

volFieldValue maxdomain_scalar write:
    max() of p = 0.0084756767 at location (0.0015663151 0.0004006648 0.5) in cell 0
    max() of k = 0.0083377376 at location (0.033975179 0.0004006648 0.5) in cell 9
    max() of epsilon = 0.76165515 at location (0.033975179 0.0004006648 0.5) in cell 9
    max() of nut = 1.5904396e-05 at location (0.68430038 0.0020572852 0.5) in cell 267

volFieldValue maxdomain_vector write:
    maxMag() of U = 1.0027261 at location (1.5734109 0.0098875613 0.5) in cell 1092

yPlus yplus_stats write:
    patch bottom y+ : min = 51.024693, max = 116.31356, average = 78.026386

Time = 25s

DILUPBiCGStab:  Solving for Ux, Initial residual = 0.0013119547, Final residual = 3.2043789e-10, No Iterations 3
DILUPBiCGStab:  Solving for Uy, Initial residual = 0.012631277, Final residual = 2.6406009e-10, No Iterations 3
DICPCG:  Solving for p, Initial residual = 0.0085646025, Final residual = 8.3035792e-05, No Iterations 63
DICPCG:  Solving for p, Initial residual = 8.1788035e-05, Final residual = 7.3963534e-07, No Iterations 74
DICPCG:  Solving for p, Initial residual = 7.3951451e-07, Final residual = 8.8620045e-09, No Iterations 32
time step continuity errors : sum local = 1.029915e-10, global = -1.2315202e-11, cumulative = -5.0264189e-11
DILUPBiCGStab:  Solving for epsilon, Initial residual = 0.0013575859, Final residual = 2.8662621e-14, No Iterations 3
DILUPBiCGStab:  Solving for k, Initial residual = 0.0046690651, Final residual = 6.857294e-11, No Iterations 3
ExecutionTime = 0.772288 s  ClockTime = 1 s



volFieldValue mindomain_scalar write:
    min() of p = -9.9119583e-05 at location (1.9686737 0.0004006648 0.5) in cell 99
    min() of k = 4.8742958e-07 at location (1.9686737 0.91041837 0.5) in cell 7479
    min() of epsilon = 7.7462017e-07 at location (1.9686737 0.91041837 0.5) in cell 7479
    min() of nut = 4.4048594e-09 at location (1.9686737 0.0057156019 0.5) in cell 699

volFieldValue mindomain_vector write:
    minMag() of U = 0.37360231 at location (1.9686737 0.0004006648 0.5) in cell 99

volFieldValue maxdomain_scalar write:
    max() of p = 0.0085009021 at location (0.0015663151 0.0004006648 0.5) in cell 0
    max() of k = 0.0083356247 at location (0.033975179 0.0004006648 0.5) in cell 9
    max() of epsilon = 0.76153378 at location (0.033975179 0.0004006648 0.5) in cell 9
    max() of nut = 1.6422293e-05 at location (0.68430038 0.0020572852 0.5) in cell 267

volFieldValue maxdomain_vector write:
    maxMag() of U = 1.0028362 at location (1.6248825 0.011019047 0.5) in cell 1193

yPlus yplus_stats write:
    patch bottom y+ : min = 50.878834, max = 116.31473, average = 78.102472

Time = 26s

DILUPBiCGStab:  Solving for Ux, Initial residual = 0.0012509933, Final residual = 1.2354652e-09, No Iterations 3
DILUPBiCGStab:  Solving for Uy, Initial residual = 0.012176638, Final residual = 1.7451358e-10, No Iterations 3
DICPCG:  Solving for p, Initial residual = 0.009132664, Final residual = 8.6163014e-05, No Iterations 66
DICPCG:  Solving for p, Initial residual = 8.4597195e-05, Final residual = 7.5458312e-07, No Iterations 78
DICPCG:  Solving for p, Initial residual = 7.545147e-07, Final residual = 9.7833008e-09, No Iterations 64
time step continuity errors : sum local = 1.1510823e-10, global = 3.6870472e-12, cumulative = -4.6577141e-11
DILUPBiCGStab:  Solving for epsilon, Initial residual = 0.0011720458, Final residual = 3.2095722e-14, No Iterations 3
DILUPBiCGStab:  Solving for k, Initial residual = 0.0044601254, Final residual = 2.3149186e-12, No Iterations 3
ExecutionTime = 0.797614 s  ClockTime = 1 s



volFieldValue mindomain_scalar write:
    min() of p = -0.00010346026 at location (1.9686737 0.0004006648 0.5) in cell 99
    min() of k = 4.8922755e-07 at location (1.9686737 0.91041837 0.5) in cell 7479
    min() of epsilon = 7.285185e-07 at location (1.9686737 0.91041837 0.5) in cell 7479
    min() of nut = 5.1235543e-09 at location (1.9686737 0.0057156019 0.5) in cell 699

volFieldValue mindomain_vector write:
    minMag() of U = 0.37247433 at location (1.9686737 0.0004006648 0.5) in cell 99

volFieldValue maxdomain_scalar write:
    max() of p = 0.0085352633 at location (0.0015663151 0.0004006648 0.5) in cell 0
    max() of k = 0.0083331565 at location (0.033975179 0.0004006648 0.5) in cell 9
    max() of epsilon = 0.76124432 at location (0.033975179 0.0004006648 0.5) in cell 9
    max() of nut = 1.6890848e-05 at location (0.66086441 0.0020572852 0.5) in cell 266

volFieldValue maxdomain_vector write:
    maxMag() of U = 1.0029472 at location (1.6248825 0.011019047 0.5) in cell 1193

yPlus yplus_stats write:
    patch bottom y+ : min = 50.750721, max = 116.31577, average = 78.183064

Time = 27s

DILUPBiCGStab:  Solving for Ux, Initial residual = 0.0012333684, Final residual = 5.3686421e-09, No Iterations 3
DILUPBiCGStab:  Solving for Uy, Initial residual = 0.011832605, Final residual = 1.9003465e-10, No Iterations 3
DICPCG:  Solving for p, Initial residual = 0.01004561, Final residual = 9.6256503e-05, No Iterations 62
DICPCG:  Solving for p, Initial residual = 9.4608183e-05, Final residual = 6.8233364e-07, No Iterations 78
DICPCG:  Solving for p, Initial residual = 6.8220803e-07, Final residual = 9.7360195e-09, No Iterations 36
time step continuity errors : sum local = 1.1572533e-10, global = -1.3722032e-11, cumulative = -6.0299173e-11
DILUPBiCGStab:  Solving for epsilon, Initial residual = 0.00093690914, Final residual = 7.632549e-14, No Iterations 3
DILUPBiCGStab:  Solving for k, Initial residual = 0.0041804346, Final residual = 5.256693e-12, No Iterations 3
ExecutionTime = 0.819956 s  ClockTime = 1 s



volFieldValue mindomain_scalar write:
    min() of p = -0.0001088007 at location (1.9686737 0.0004006648 0.5) in cell 99
    min() of k = 4.9267296e-07 at location (1.9686737 0.91041837 0.5) in cell 7479
    min() of epsilon = 6.9122259e-07 at location (1.9686737 0.91041837 0.5) in cell 7479
    min() of nut = 6.7548885e-09 at location (1.9686737 0.0057156019 0.5) in cell 699

volFieldValue mindomain_vector write:
    minMag() of U = 0.3716136 at location (1.9686737 0.0004006648 0.5) in cell 99

volFieldValue maxdomain_scalar write:
    max() of p = 0.0085705706 at location (0.0015663151 0.0004006648 0.5) in cell 0
    max() of k = 0.008330926 at location (0.033975179 0.0004006648 0.5) in cell 9
    max() of epsilon = 0.76090624 at location (0.033975179 0.0004006648 0.5) in cell 9
    max() of nut = 1.7319938e-05 at location (0.66086441 0.0020572852 0.5) in cell 266

volFieldValue maxdomain_vector write:
    maxMag() of U = 1.0030581 at location (1.6779355 0.011019047 0.5) in cell 1194

yPlus yplus_stats write:
    patch bottom y+ : min = 50.652933, max = 116.31669, average = 78.269224

Time = 28s

DILUPBiCGStab:  Solving for Ux, Initial residual = 0.0012013357, Final residual = 4.3969606e-09, No Iterations 3
DILUPBiCGStab:  Solving for Uy, Initial residual = 0.011487586, Final residual = 2.9017149e-10, No Iterations 3
DICPCG:  Solving for p, Initial residual = 0.010460233, Final residual = 0.00010154185, No Iterations 59
DICPCG:  Solving for p, Initial residual = 0.00010003963, Final residual = 9.8409638e-07, No Iterations 76
DICPCG:  Solving for p, Initial residual = 9.8385409e-07, Final residual = 9.1315799e-09, No Iterations 66
time step continuity errors : sum local = 1.0961675e-10, global = -2.8213949e-12, cumulative = -6.3120568e-11
DILUPBiCGStab:  Solving for epsilon, Initial residual = 0.00091688343, Final residual = 4.9566626e-14, No Iterations 3
DILUPBiCGStab:  Solving for k, Initial residual = 0.0039605077, Final residual = 3.7897934e-12, No Iterations 3
ExecutionTime = 0.844664 s  ClockTime = 1 s



volFieldValue mindomain_scalar write:
    min() of p = -0.00011533745 at location (1.9686737 0.0004006648 0.5) in cell 99
    min() of k = 4.9748787e-07 at location (1.9686737 0.91041837 0.5) in cell 7479
    min() of epsilon = 6.608084e-07 at location (1.9686737 0.91041837 0.5) in cell 7479
    min() of nut = 7.028099e-09 at location (1.9686737 0.0067077814 0.5) in cell 799

volFieldValue mindomain_vector write:
    minMag() of U = 0.37103093 at location (1.9686737 0.0004006648 0.5) in cell 99

volFieldValue maxdomain_scalar write:
    max() of p = 0.0085998281 at location (0.0015663151 0.0004006648 0.5) in cell 0
    max() of k = 0.0083292996 at location (0.033975179 0.0004006648 0.5) in cell 9
    max() of epsilon = 0.76060076 at location (0.033975179 0.0004006648 0.5) in cell 9
    max() of nut = 1.7715325e-05 at location (0.63812698 0.0020572852 0.5) in cell 265

volFieldValue maxdomain_vector write:
    maxMag() of U = 1.0031668 at location (1.6779355 0.011019047 0.5) in cell 1194

yPlus yplus_stats write:
    patch bottom y+ : min = 50.586719, max = 116.3175, average = 78.361282

Time = 29s

DILUPBiCGStab:  Solving for Ux, Initial residual = 0.0011572092, Final residual = 4.4396739e-09, No Iterations 3
DILUPBiCGStab:  Solving for Uy, Initial residual = 0.011063225, Final residual = 3.7233874e-10, No Iterations 3
DICPCG:  Solving for p, Initial residual = 0.0099977857, Final residual = 9.456061e-05, No Iterations 54
DICPCG:  Solving for p, Initial residual = 9.326226e-05, Final residual = 6.8942044e-07, No Iterations 78
DICPCG:  Solving for p, Initial residual = 6.8916553e-07, Final residual = 8.0204517e-09, No Iterations 31
time step continuity errors : sum local = 9.7302222e-11, global = -1.2817642e-11, cumulative = -7.593821e-11
DILUPBiCGStab:  Solving for epsilon, Initial residual = 0.00091642372, Final residual = 3.8668459e-14, No Iterations 3
DILUPBiCGStab:  Solving for k, Initial residual = 0.0037921099, Final residual = 2.95441e-12, No Iterations 3
ExecutionTime = 0.867278 s  ClockTime = 1 s



volFieldValue mindomain_scalar write:
    min() of p = -0.00012257437 at location (1.9686737 0.0004006648 0.5) in cell 99
    min() of k = 5.0344838e-07 at location (1.9686737 0.91041837 0.5) in cell 7479
    min() of epsilon = 6.3584468e-07 at location (1.9686737 0.91041837 0.5) in cell 7479
    min() of nut = 6.0972023e-09 at location (1.9686737 0.0067077814 0.5) in cell 799

volFieldValue mindomain_vector write:
    minMag() of U = 0.37063728 at location (1.9686737 0.0004006648 0.5) in cell 99

volFieldValue maxdomain_scalar write:
    max() of p = 0.0086239542 at location (0.0015663151 0.0004006648 0.5) in cell 0
    max() of k = 0.0083284665 at location (0.033975179 0.0004006648 0.5) in cell 9
    max() of epsilon = 0.76037804 at location (0.033975179 0.0004006648 0.5) in cell 9
    max() of nut = 1.8088177e-05 at location (0.63812698 0.0020572852 0.5) in cell 265

volFieldValue maxdomain_vector write:
    maxMag() of U = 1.0032716 at location (1.6779355 0.011019047 0.5) in cell 1194

yPlus yplus_stats write:
    patch bottom y+ : min = 50.541979, max = 116.31821, average = 78.457968

Time = 30s

DILUPBiCGStab:  Solving for Ux, Initial residual = 0.0010998568, Final residual = 1.0784735e-09, No Iterations 3
DILUPBiCGStab:  Solving for Uy, Initial residual = 0.010590622, Final residual = 3.4588759e-10, No Iterations 3
DICPCG:  Solving for p, Initial residual = 0.0087899101, Final residual = 7.6617262e-05, No Iterations 59
DICPCG:  Solving for p, Initial residual = 7.5552174e-05, Final residual = 7.4628532e-07, No Iterations 69
DICPCG:  Solving for p, Initial residual = 7.4619998e-07, Final residual = 8.9175064e-09, No Iterations 54
time step continuity errors : sum local = 1.0926838e-10, global = -1.1951705e-12, cumulative = -7.713338e-11
DILUPBiCGStab:  Solving for epsilon, Initial residual = 0.00088424225, Final residual = 5.9443349e-14, No Iterations 3
DILUPBiCGStab:  Solving for k, Initial residual = 0.003713463, Final residual = 3.8349527e-12, No Iterations 3
ExecutionTime = 0.891224 s  ClockTime = 1 s



volFieldValue mindomain_scalar write:
    min() of p = -0.00012929972 at location (1.9686737 0.0004006648 0.5) in cell 99
    min() of k = 5.1037145e-07 at location (1.9686737 0.91041837 0.5) in cell 7479
    min() of epsilon = 6.1524983e-07 at location (1.9686737 0.91041837 0.5) in cell 7479
    min() of nut = 5.3410927e-09 at location (1.9686737 0.0067077814 0.5) in cell 799

volFieldValue mindomain_vector write:
    minMag() of U = 0.3703199 at location (1.9686737 0.0004006648 0.5) in cell 99

volFieldValue maxdomain_scalar write:
    max() of p = 0.0086505707 at location (0.0015663151 0.0004006648 0.5) in cell 0
    max() of k = 0.0083284824 at location (0.033975179 0.0004006648 0.5) in cell 9
    max() of epsilon = 0.76026396 at location (0.033975179 0.0004006648 0.5) in cell 9
    max() of nut = 1.8596951e-05 at location (0.75901753 0.0029273097 0.5) in cell 370

volFieldValue maxdomain_vector write:
    maxMag() of U = 1.0033725 at location (1.7326183 0.011019047 0.5) in cell 1195

yPlus yplus_stats write:
    patch bottom y+ : min = 50.505904, max = 116.31886, average = 78.557078

Time = 31s

DILUPBiCGStab:  Solving for Ux, Initial residual = 0.0010461716, Final residual = 6.5873617e-09, No Iterations 3
DILUPBiCGStab:  Solving for Uy, Initial residual = 0.010164454, Final residual = 2.6621721e-10, No Iterations 3
DICPCG:  Solving for p, Initial residual = 0.0079226648, Final residual = 6.497435e-05, No Iterations 61
DICPCG:  Solving for p, Initial residual = 6.3883701e-05, Final residual = 6.2709832e-07, No Iterations 74
DICPCG:  Solving for p, Initial residual = 6.2703717e-07, Final residual = 8.3288852e-09, No Iterations 65
time step continuity errors : sum local = 1.0325763e-10, global = 1.6041963e-12, cumulative = -7.5529184e-11
DILUPBiCGStab:  Solving for epsilon, Initial residual = 0.0008296131, Final residual = 8.4383528e-14, No Iterations 3
DILUPBiCGStab:  Solving for k, Initial residual = 0.003673093, Final residual = 5.7423004e-12, No Iterations 3
ExecutionTime = 0.916361 s  ClockTime = 1 s



volFieldValue mindomain_scalar write:
    min() of p = -0.00013499425 at location (1.9686737 0.0004006648 0.5) in cell 99
    min() of k = 5.1810535e-07 at location (1.9686737 0.91041837 0.5) in cell 7479
    min() of epsilon = 5.9819437e-07 at location (1.9686737 0.91041837 0.5) in cell 7479
    min() of nut = 5.5128587e-09 at location (1.9686737 0.0067077814 0.5) in cell 799

volFieldValue mindomain_vector write:
    minMag() of U = 0.37002187 at location (1.9686737 0.0004006648 0.5) in cell 99

volFieldValue maxdomain_scalar write:
    max() of p = 0.008686502 at location (0.0015663151 0.0004006648 0.5) in cell 0
    max() of k = 0.0083293093 at location (0.033975179 0.0004006648 0.5) in cell 9
    max() of epsilon = 0.76026614 at location (0.033975179 0.0004006648 0.5) in cell 9
    max() of nut = 1.9303999e-05 at location (0.75901753 0.0029273097 0.5) in cell 370

volFieldValue maxdomain_vector write:
    maxMag() of U = 1.0034706 at location (1.7326183 0.011019047 0.5) in cell 1195

yPlus yplus_stats write:
    patch bottom y+ : min = 50.472026, max = 116.31945, average = 78.65678

Time = 32s

DILUPBiCGStab:  Solving for Ux, Initial residual = 0.0010114377, Final residual = 8.6083748e-09, No Iterations 3
DILUPBiCGStab:  Solving for Uy, Initial residual = 0.0098559505, Final residual = 2.730181e-10, No Iterations 3
DICPCG:  Solving for p, Initial residual = 0.0081551924, Final residual = 7.7961769e-05, No Iterations 62
DICPCG:  Solving for p, Initial residual = 7.6422633e-05, Final residual = 6.8934718e-07, No Iterations 75
DICPCG:  Solving for p, Initial residual = 6.8927438e-07, Final residual = 9.8115718e-09, No Iterations 57
time step continuity errors : sum local = 1.2324731e-10, global = -1.8036317e-12, cumulative = -7.7332816e-11
DILUPBiCGStab:  Solving for epsilon, Initial residual = 0.00073630596, Final residual = 1.1847276e-13, No Iterations 3
DILUPBiCGStab:  Solving for k, Initial residual = 0.0036001662, Final residual = 9.1796515e-12, No Iterations 3
ExecutionTime = 0.942248 s  ClockTime = 1 s



volFieldValue mindomain_scalar write:
    min() of p = -0.0001399314 at location (1.9686737 0.0004006648 0.5) in cell 99
    min() of k = 5.265226e-07 at location (1.9686737 0.91041837 0.5) in cell 7479
    min() of epsilon = 5.840335e-07 at location (1.9686737 0.91041837 0.5) in cell 7479
    min() of nut = 6.2810552e-09 at location (1.9686737 0.0067077814 0.5) in cell 799

volFieldValue mindomain_vector write:
    minMag() of U = 0.36975939 at location (1.9686737 0.0004006648 0.5) in cell 99

volFieldValue maxdomain_scalar write:
    max() of p = 0.0087308004 at location (0.0015663151 0.0004006648 0.5) in cell 0
    max() of k = 0.0083308478 at location (0.033975179 0.0004006648 0.5) in cell 9
    max() of epsilon = 0.76037937 at location (0.033975179 0.0004006648 0.5) in cell 9
    max() of nut = 1.9960636e-05 at location (0.73335448 0.0029273097 0.5) in cell 369

volFieldValue maxdomain_vector write:
    maxMag() of U = 1.0035653 at location (1.7326183 0.011019047 0.5) in cell 1195

yPlus yplus_stats write:
    patch bottom y+ : min = 50.442185, max = 116.31994, average = 78.756352

Time = 33s

DILUPBiCGStab:  Solving for Ux, Initial residual = 0.0010140749, Final residual = 1.7251776e-09, No Iterations 3
DILUPBiCGStab:  Solving for Uy, Initial residual = 0.0096361673, Final residual = 3.059378e-10, No Iterations 3
DICPCG:  Solving for p, Initial residual = 0.0087787144, Final residual = 8.2792817e-05, No Iterations 61
DICPCG:  Solving for p, Initial residual = 8.1202273e-05, Final residual = 7.5187539e-07, No Iterations 75
DICPCG:  Solving for p, Initial residual = 7.5178836e-07, Final residual = 6.621785e-09, No Iterations 67
time step continuity errors : sum local = 8.4131104e-11, global = -7.7965997e-13, cumulative = -7.8112476e-11
DILUPBiCGStab:  Solving for epsilon, Initial residual = 0.00059327213, Final residual = 1.5204384e-13, No Iterations 3
DILUPBiCGStab:  Solving for k, Initial residual = 0.003465093, Final residual = 9.6921437e-12, No Iterations 3
ExecutionTime = 0.965861 s  ClockTime = 1 s



volFieldValue mindomain_scalar write:
    min() of p = -0.00014523305 at location (1.9686737 0.0004006648 0.5) in cell 99
    min() of k = 5.3551476e-07 at location (1.9686737 0.91041837 0.5) in cell 7479
    min() of epsilon = 5.722596e-07 at location (1.9686737 0.91041837 0.5) in cell 7479
    min() of nut = 7.9003685e-09 at location (1.9686737 0.0067077814 0.5) in cell 799

volFieldValue mindomain_vector write:
    minMag() of U = 0.36958483 at location (1.9686737 0.0004006648 0.5) in cell 99

volFieldValue maxdomain_scalar write:
    max() of p = 0.0087761049 at location (0.0015663151 0.0004006648 0.5) in cell 0
    max() of k = 0.0083329637 at location (0.033975179 0.0004006648 0.5) in cell 9
    max() of epsilon = 0.76059005 at location (0.033975179 0.0004006648 0.5) in cell 9
    max() of nut = 2.0579588e-05 at location (0.73335448 0.0029273097 0.5) in cell 369

volFieldValue maxdomain_vector write:
    maxMag() of U = 1.0036548 at location (1.7889812 0.012188314 0.5) in cell 1296

yPlus yplus_stats write:
    patch bottom y+ : min = 50.422339, max = 116.32036, average = 78.856001

Time = 34s

DILUPBiCGStab:  Solving for Ux, Initial residual = 0.0010024617, Final residual = 5.8461486e-10, No Iterations 3
DILUPBiCGStab:  Solving for Uy, Initial residual = 0.0094145787, Final residual = 3.9345311e-10, No Iterations 3
DICPCG:  Solving for p, Initial residual = 0.0090948802, Final residual = 8.2768708e-05, No Iterations 60
DICPCG:  Solving for p, Initial residual = 8.1333269e-05, Final residual = 8.0489751e-07, No Iterations 73
DICPCG:  Solving for p, Initial residual = 8.0481361e-07, Final residual = 9.4016519e-09, No Iterations 63
time step continuity errors : sum local = 1.2074793e-10, global = 3.1773954e-12, cumulative = -7.493508e-11
DILUPBiCGStab:  Solving for epsilon, Initial residual = 0.00055151321, Final residual = 1.4147544e-13, No Iterations 3
DILUPBiCGStab:  Solving for k, Initial residual = 0.0033342396, Final residual = 7.6462165e-12, No Iterations 3
ExecutionTime = 0.995734 s  ClockTime = 1 s



volFieldValue mindomain_scalar write:
    min() of p = -0.00015164149 at location (1.9686737 0.0004006648 0.5) in cell 99
    min() of k = 5.4498852e-07 at location (1.9686737 0.91041837 0.5) in cell 7479
    min() of epsilon = 5.624684e-07 at location (1.9686737 0.91041837 0.5) in cell 7479
    min() of nut = 8.605893e-09 at location (1.9686737 0.0077330908 0.5) in cell 899

volFieldValue mindomain_vector write:
    minMag() of U = 0.36954296 at location (1.9686737 0.0004006648 0.5) in cell 99

volFieldValue maxdomain_scalar write:
    max() of p = 0.008815977 at location (0.0015663151 0.0004006648 0.5) in cell 0
    max() of k = 0.0083355088 at location (0.033975179 0.0004006648 0.5) in cell 9
    max() of epsilon = 0.76087984 at location (0.033975179 0.0004006648 0.5) in cell 9
    max() of nut = 2.1164519e-05 at location (0.73335448 0.0029273097 0.5) in cell 369

volFieldValue maxdomain_vector write:
    maxMag() of U = 1.0037405 at location (1.7889812 0.012188314 0.5) in cell 1296

yPlus yplus_stats write:
    patch bottom y+ : min = 50.417578, max = 116.32075, average = 78.956201

Time = 35s

DILUPBiCGStab:  Solving for Ux, Initial residual = 0.0009687606, Final residual = 8.0543664e-09, No Iterations 3
DILUPBiCGStab:  Solving for Uy, Initial residual = 0.0091265677, Final residual = 4.4815955e-10, No Iterations 3
DICPCG:  Solving for p, Initial residual = 0.0085566811, Final residual = 7.4257048e-05, No Iterations 60
DICPCG:  Solving for p, Initial residual = 7.3023241e-05, Final residual = 5.7918492e-07, No Iterations 69
DICPCG:  Solving for p, Initial residual = 5.7913697e-07, Final residual = 9.8240233e-09, No Iterations 61
time step continuity errors : sum local = 1.2768058e-10, global = 4.2689178e-13, cumulative = -7.4508189e-11
DILUPBiCGStab:  Solving for epsilon, Initial residual = 0.00058263129, Final residual = 1.6750391e-13, No Iterations 3
DILUPBiCGStab:  Solving for k, Initial residual = 0.0032334567, Final residual = 8.2054342e-12, No Iterations 3
ExecutionTime = 1.027479 s  ClockTime = 1 s



volFieldValue mindomain_scalar write:
    min() of p = -0.00015906421 at location (1.9686737 0.0004006648 0.5) in cell 99
    min() of k = 5.5486276e-07 at location (1.9686737 0.91041837 0.5) in cell 7479
    min() of epsilon = 5.5433445e-07 at location (1.9686737 0.91041837 0.5) in cell 7479
    min() of nut = 7.8046835e-09 at location (1.9686737 0.0077330908 0.5) in cell 899

volFieldValue mindomain_vector write:
    minMag() of U = 0.36964143 at location (1.9686737 0.0004006648 0.5) in cell 99

volFieldValue maxdomain_scalar write:
    max() of p = 0.0088507056 at location (0.0015663151 0.0004006648 0.5) in cell 0
    max() of k = 0.0083383355 at location (0.033975179 0.0004006648 0.5) in cell 9
    max() of epsilon = 0.76122845 at location (0.033975179 0.0004006648 0.5) in cell 9
    max() of nut = 2.1720126e-05 at location (0.73335448 0.0029273097 0.5) in cell 369

volFieldValue maxdomain_vector write:
    maxMag() of U = 1.003819 at location (1.7889812 0.012188314 0.5) in cell 1296

yPlus yplus_stats write:
    patch bottom y+ : min = 50.428774, max = 116.32112, average = 79.057076

Time = 36s

DILUPBiCGStab:  Solving for Ux, Initial residual = 0.00092572814, Final residual = 1.0043798e-11, No Iterations 4
DILUPBiCGStab:  Solving for Uy, Initial residual = 0.0087792011, Final residual = 3.836332e-10, No Iterations 3
DICPCG:  Solving for p, Initial residual = 0.0077143188, Final residual = 6.7892902e-05, No Iterations 61
DICPCG:  Solving for p, Initial residual = 6.6775493e-05, Final residual = 5.9135279e-07, No Iterations 71
DICPCG:  Solving for p, Initial residual = 5.9131931e-07, Final residual = 7.9001073e-09, No Iterations 63
time step continuity errors : sum local = 1.0384176e-10, global = -1.4922547e-12, cumulative = -7.6000443e-11
DILUPBiCGStab:  Solving for epsilon, Initial residual = 0.00057280198, Final residual = 2.3471685e-13, No Iterations 3
DILUPBiCGStab:  Solving for k, Initial residual = 0.0031714447, Final residual = 9.7408981e-12, No Iterations 3
ExecutionTime = 1.051592 s  ClockTime = 1 s



volFieldValue mindomain_scalar write:
    min() of p = -0.00016668048 at location (1.9686737 0.0004006648 0.5) in cell 99
    min() of k = 5.6506631e-07 at location (1.9686737 0.91041837 0.5) in cell 7479
    min() of epsilon = 5.4759319e-07 at location (1.9686737 0.91041837 0.5) in cell 7479
    min() of nut = 7.3281254e-09 at location (1.9686737 0.0077330908 0.5) in cell 899

volFieldValue mindomain_vector write:
    minMag() of U = 0.36985197 at location (1.9686737 0.0004006648 0.5) in cell 99

volFieldValue maxdomain_scalar write:
    max() of p = 0.0088864495 at location (0.0015663151 0.0004006648 0.5) in cell 0
    max() of k = 0.0083413075 at location (0.033975179 0.0004006648 0.5) in cell 9
    max() of epsilon = 0.7616157 at location (0.033975179 0.0004006648 0.5) in cell 9
    max() of nut = 2.224705e-05 at location (0.73335448 0.0029273097 0.5) in cell 369

volFieldValue maxdomain_vector write:
    maxMag() of U = 1.0038888 at location (1.7889812 0.012188314 0.5) in cell 1296

yPlus yplus_stats write:
    patch bottom y+ : min = 50.45271, max = 116.32144, average = 79.158222

Time = 37s

DILUPBiCGStab:  Solving for Ux, Initial residual = 0.00088750925, Final residual = 6.616417e-09, No Iterations 3
DILUPBiCGStab:  Solving for Uy, Initial residual = 0.0084502734, Final residual = 3.4234818e-10, No Iterations 3
DICPCG:  Solving for p, Initial residual = 0.0073769314, Final residual = 6.5064202e-05, No Iterations 62
DICPCG:  Solving for p, Initial residual = 6.3865237e-05, Final residual = 4.816066e-07, No Iterations 74
DICPCG:  Solving for p, Initial residual = 4.8157849e-07, Final residual = 9.7883444e-09, No Iterations 58
time step continuity errors : sum local = 1.3027975e-10, global = -2.9525822e-12, cumulative = -7.8953025e-11
DILUPBiCGStab:  Solving for epsilon, Initial residual = 0.00053999048, Final residual = 3.0746224e-13, No Iterations 3
DILUPBiCGStab:  Solving for k, Initial residual = 0.0031497914, Final residual = 1.2414354e-11, No Iterations 3
ExecutionTime = 1.074747 s  ClockTime = 1 s



volFieldValue mindomain_scalar write:
    min() of p = -0.00017357362 at location (1.9686737 0.0004006648 0.5) in cell 99
    min() of k = 5.7553623e-07 at location (1.9686737 0.91041837 0.5) in cell 7479
    min() of epsilon = 5.4202761e-07 at location (1.9686737 0.91041837 0.5) in cell 7479
    min() of nut = 7.8435657e-09 at location (1.9686737 0.0077330908 0.5) in cell 899

volFieldValue mindomain_vector write:
    minMag() of U = 0.3701374 at location (1.9686737 0.0004006648 0.5) in cell 99

volFieldValue maxdomain_scalar write:
    max() of p = 0.0089287229 at location (0.0015663151 0.0004006648 0.5) in cell 0
    max() of k = 0.0083443061 at location (0.033975179 0.0004006648 0.5) in cell 9
    max() of epsilon = 0.76202292 at location (0.033975179 0.0004006648 0.5) in cell 9
    max() of nut = 2.2744642e-05 at location (0.73335448 0.0029273097 0.5) in cell 369

volFieldValue maxdomain_vector write:
    maxMag() of U = 1.0039498 at location (1.7889812 0.012188314 0.5) in cell 1296

yPlus yplus_stats write:
    patch bottom y+ : min = 50.485159, max = 116.32173, average = 79.259035

Time = 38s

DILUPBiCGStab:  Solving for Ux, Initial residual = 0.00086951157, Final residual = 7.9032244e-09, No Iterations 3
DILUPBiCGStab:  Solving for Uy, Initial residual = 0.0082011513, Final residual = 3.7109636e-10, No Iterations 3
DICPCG:  Solving for p, Initial residual = 0.0075573125, Final residual = 7.0335423e-05, No Iterations 63
DICPCG:  Solving for p, Initial residual = 6.8942081e-05, Final residual = 5.8534612e-07, No Iterations 75
DICPCG:  Solving for p, Initial residual = 5.8530683e-07, Final residual = 9.9004128e-09, No Iterations 62
time step continuity errors : sum local = 1.3343806e-10, global = -6.7426433e-12, cumulative = -8.5695669e-11
DILUPBiCGStab:  Solving for epsilon, Initial residual = 0.00048298817, Final residual = 3.6223374e-13, No Iterations 3
DILUPBiCGStab:  Solving for k, Initial residual = 0.003114882, Final residual = 1.598601e-11, No Iterations 3
ExecutionTime = 1.100338 s  ClockTime = 1 s



volFieldValue mindomain_scalar write:
    min() of p = -0.00017978711 at location (1.9686737 0.0004006648 0.5) in cell 99
    min() of k = 5.862164e-07 at location (1.9686737 0.91041837 0.5) in cell 7479
[...]
DILUPBiCGStab:  Solving for epsilon, Initial residual = 4.8949855e-08, Final residual = 2.7097109e-16, No Iterations 3
DILUPBiCGStab:  Solving for k, Initial residual = 1.0714198e-06, Final residual = 3.650537e-15, No Iterations 3
ExecutionTime = 34.587034 s  ClockTime = 34 s



volFieldValue mindomain_scalar write:
    min() of p = -0.00047416873 at location (1.9686737 0.0004006648 0.5) in cell 99
    min() of k = 0.00013841274 at location (1.9686737 0.053027488 0.5) in cell 3599
    min() of epsilon = 1.8132942e-06 at location (-0.065986977 0.91041837 0.5) in cell 5674
    min() of nut = 8.8399909e-07 at location (0.071208734 0.0020572852 0.5) in cell 217

volFieldValue mindomain_vector write:
    minMag() of U = 0.55245638 at location (1.9686737 0.0004006648 0.5) in cell 99

volFieldValue maxdomain_scalar write:
    max() of p = 0.0087655825 at location (0.0015663151 0.0004006648 0.5) in cell 0
    max() of k = 0.0083892603 at location (0.033975179 0.0004006648 0.5) in cell 9
    max() of epsilon = 0.76860317 at location (0.033975179 0.0004006648 0.5) in cell 9
    max() of nut = 0.0011127227 at location (-0.28438808 0.91041837 0.5) in cell 5670

volFieldValue maxdomain_vector write:
    maxMag() of U = 1.0036478 at location (1.9686737 0.15770312 0.5) in cell 6379

yPlus yplus_stats write:
    patch bottom y+ : min = 70.721134, max = 116.35583, average = 83.819431

Time = 1992s

DILUPBiCGStab:  Solving for Ux, Initial residual = 2.1161325e-07, Final residual = 2.8749265e-13, No Iterations 3
DILUPBiCGStab:  Solving for Uy, Initial residual = 3.0909968e-06, Final residual = 2.9870861e-12, No Iterations 3
DICPCG:  Solving for p, Initial residual = 3.3509229e-06, Final residual = 3.0715567e-08, No Iterations 62
DICPCG:  Solving for p, Initial residual = 3.0715937e-08, Final residual = 9.368371e-09, No Iterations 13
DICPCG:  Solving for p, Initial residual = 9.3683709e-09, Final residual = 5.4765498e-09, No Iterations 3
time step continuity errors : sum local = 5.4944846e-11, global = -2.4170547e-13, cumulative = 4.3240115e-09
DILUPBiCGStab:  Solving for epsilon, Initial residual = 4.8904658e-08, Final residual = 2.7073839e-16, No Iterations 3
DILUPBiCGStab:  Solving for k, Initial residual = 1.0703677e-06, Final residual = 3.6472573e-15, No Iterations 3
ExecutionTime = 34.602518 s  ClockTime = 34 s



volFieldValue mindomain_scalar write:
    min() of p = -0.00047418535 at location (1.9686737 0.0004006648 0.5) in cell 99
    min() of k = 0.00013841639 at location (1.9686737 0.053027488 0.5) in cell 3599
    min() of epsilon = 1.8123926e-06 at location (-0.065986977 0.91041837 0.5) in cell 5674
    min() of nut = 8.8400454e-07 at location (0.071208734 0.0020572852 0.5) in cell 217

volFieldValue mindomain_vector write:
    minMag() of U = 0.5524564 at location (1.9686737 0.0004006648 0.5) in cell 99

volFieldValue maxdomain_scalar write:
    max() of p = 0.0087655862 at location (0.0015663151 0.0004006648 0.5) in cell 0
    max() of k = 0.0083892625 at location (0.033975179 0.0004006648 0.5) in cell 9
    max() of epsilon = 0.76860347 at location (0.033975179 0.0004006648 0.5) in cell 9
    max() of nut = 0.0011132783 at location (-0.28438808 0.91041837 0.5) in cell 5670

volFieldValue maxdomain_vector write:
    maxMag() of U = 1.0036477 at location (1.9686737 0.15770312 0.5) in cell 6379

yPlus yplus_stats write:
    patch bottom y+ : min = 70.721136, max = 116.35584, average = 83.819439

Time = 1993s

DILUPBiCGStab:  Solving for Ux, Initial residual = 2.1153026e-07, Final residual = 2.8741295e-13, No Iterations 3
DILUPBiCGStab:  Solving for Uy, Initial residual = 3.088683e-06, Final residual = 2.985791e-12, No Iterations 3
DICPCG:  Solving for p, Initial residual = 3.3490957e-06, Final residual = 3.0690467e-08, No Iterations 62
DICPCG:  Solving for p, Initial residual = 3.0690836e-08, Final residual = 9.3604997e-09, No Iterations 13
DICPCG:  Solving for p, Initial residual = 9.3604991e-09, Final residual = 5.4736454e-09, No Iterations 3
time step continuity errors : sum local = 5.4913971e-11, global = -2.4209292e-13, cumulative = 4.3237694e-09
DILUPBiCGStab:  Solving for epsilon, Initial residual = 4.8859592e-08, Final residual = 2.7050597e-16, No Iterations 3
DILUPBiCGStab:  Solving for k, Initial residual = 1.0693171e-06, Final residual = 3.6440045e-15, No Iterations 3
ExecutionTime = 34.619358 s  ClockTime = 34 s



volFieldValue mindomain_scalar write:
    min() of p = -0.00047420197 at location (1.9686737 0.0004006648 0.5) in cell 99
    min() of k = 0.00013842004 at location (1.9686737 0.053027488 0.5) in cell 3599
    min() of epsilon = 1.811492e-06 at location (-0.065986977 0.91041837 0.5) in cell 5674
    min() of nut = 8.8400998e-07 at location (0.071208734 0.0020572852 0.5) in cell 217

volFieldValue mindomain_vector write:
    minMag() of U = 0.55245642 at location (1.9686737 0.0004006648 0.5) in cell 99

volFieldValue maxdomain_scalar write:
    max() of p = 0.0087655899 at location (0.0015663151 0.0004006648 0.5) in cell 0
    max() of k = 0.0083892647 at location (0.033975179 0.0004006648 0.5) in cell 9
    max() of epsilon = 0.76860377 at location (0.033975179 0.0004006648 0.5) in cell 9
    max() of nut = 0.0011138339 at location (-0.28438808 0.91041837 0.5) in cell 5670

volFieldValue maxdomain_vector write:
    maxMag() of U = 1.0036477 at location (1.9686737 0.15770312 0.5) in cell 6379

yPlus yplus_stats write:
    patch bottom y+ : min = 70.721138, max = 116.35585, average = 83.819446

Time = 1994s

DILUPBiCGStab:  Solving for Ux, Initial residual = 2.1145512e-07, Final residual = 2.8728171e-13, No Iterations 3
DILUPBiCGStab:  Solving for Uy, Initial residual = 3.0867925e-06, Final residual = 2.9849157e-12, No Iterations 3
DICPCG:  Solving for p, Initial residual = 3.3473147e-06, Final residual = 3.0672962e-08, No Iterations 62
DICPCG:  Solving for p, Initial residual = 3.0673331e-08, Final residual = 9.3550935e-09, No Iterations 13
DICPCG:  Solving for p, Initial residual = 9.3550936e-09, Final residual = 5.4716115e-09, No Iterations 3
time step continuity errors : sum local = 5.489188e-11, global = -2.4234519e-13, cumulative = 4.3235271e-09
DILUPBiCGStab:  Solving for epsilon, Initial residual = 4.8814637e-08, Final residual = 2.7027379e-16, No Iterations 3
DILUPBiCGStab:  Solving for k, Initial residual = 1.0682681e-06, Final residual = 3.6407686e-15, No Iterations 3
ExecutionTime = 34.633728 s  ClockTime = 35 s



volFieldValue mindomain_scalar write:
    min() of p = -0.0004742186 at location (1.9686737 0.0004006648 0.5) in cell 99
    min() of k = 0.00013842368 at location (1.9686737 0.053027488 0.5) in cell 3599
    min() of epsilon = 1.8105922e-06 at location (-0.065986977 0.91041837 0.5) in cell 5674
    min() of nut = 8.8401542e-07 at location (0.071208734 0.0020572852 0.5) in cell 217

volFieldValue mindomain_vector write:
    minMag() of U = 0.55245643 at location (1.9686737 0.0004006648 0.5) in cell 99

volFieldValue maxdomain_scalar write:
    max() of p = 0.0087655936 at location (0.0015663151 0.0004006648 0.5) in cell 0
    max() of k = 0.0083892668 at location (0.033975179 0.0004006648 0.5) in cell 9
    max() of epsilon = 0.76860407 at location (0.033975179 0.0004006648 0.5) in cell 9
    max() of nut = 0.0011143895 at location (-0.28438808 0.91041837 0.5) in cell 5670

volFieldValue maxdomain_vector write:
    maxMag() of U = 1.0036476 at location (1.9686737 0.15770312 0.5) in cell 6379

yPlus yplus_stats write:
    patch bottom y+ : min = 70.72114, max = 116.35586, average = 83.819454

Time = 1995s

DILUPBiCGStab:  Solving for Ux, Initial residual = 2.1138498e-07, Final residual = 2.8713062e-13, No Iterations 3
DILUPBiCGStab:  Solving for Uy, Initial residual = 3.0851819e-06, Final residual = 2.9840901e-12, No Iterations 3
DICPCG:  Solving for p, Initial residual = 3.3455647e-06, Final residual = 3.066051e-08, No Iterations 62
DICPCG:  Solving for p, Initial residual = 3.0660878e-08, Final residual = 9.3514214e-09, No Iterations 13
DICPCG:  Solving for p, Initial residual = 9.3514213e-09, Final residual = 5.4701791e-09, No Iterations 3
time step continuity errors : sum local = 5.4875839e-11, global = -2.4225786e-13, cumulative = 4.3232848e-09
DILUPBiCGStab:  Solving for epsilon, Initial residual = 4.8769771e-08, Final residual = 2.7004183e-16, No Iterations 3
DILUPBiCGStab:  Solving for k, Initial residual = 1.0672207e-06, Final residual = 3.6375421e-15, No Iterations 3
ExecutionTime = 34.648413 s  ClockTime = 35 s



volFieldValue mindomain_scalar write:
    min() of p = -0.00047423523 at location (1.9686737 0.0004006648 0.5) in cell 99
    min() of k = 0.00013842733 at location (1.9686737 0.053027488 0.5) in cell 3599
    min() of epsilon = 1.8096933e-06 at location (-0.065986977 0.91041837 0.5) in cell 5674
    min() of nut = 8.8402086e-07 at location (0.071208734 0.0020572852 0.5) in cell 217

volFieldValue mindomain_vector write:
    minMag() of U = 0.55245645 at location (1.9686737 0.0004006648 0.5) in cell 99

volFieldValue maxdomain_scalar write:
    max() of p = 0.0087655973 at location (0.0015663151 0.0004006648 0.5) in cell 0
    max() of k = 0.008389269 at location (0.033975179 0.0004006648 0.5) in cell 9
    max() of epsilon = 0.76860437 at location (0.033975179 0.0004006648 0.5) in cell 9
    max() of nut = 0.0011149451 at location (-0.28438808 0.91041837 0.5) in cell 5670

volFieldValue maxdomain_vector write:
    maxMag() of U = 1.0036476 at location (1.9686737 0.15770312 0.5) in cell 6379

yPlus yplus_stats write:
    patch bottom y+ : min = 70.721142, max = 116.35588, average = 83.819461

Time = 1996s

DILUPBiCGStab:  Solving for Ux, Initial residual = 2.1131768e-07, Final residual = 2.869752e-13, No Iterations 3
DILUPBiCGStab:  Solving for Uy, Initial residual = 3.0837654e-06, Final residual = 2.9831994e-12, No Iterations 3
DICPCG:  Solving for p, Initial residual = 3.3438153e-06, Final residual = 3.0651388e-08, No Iterations 62
DICPCG:  Solving for p, Initial residual = 3.0651757e-08, Final residual = 9.3488964e-09, No Iterations 13
DICPCG:  Solving for p, Initial residual = 9.3488961e-09, Final residual = 5.4691874e-09, No Iterations 3
time step continuity errors : sum local = 5.486419e-11, global = -2.4205144e-13, cumulative = 4.3230428e-09
DILUPBiCGStab:  Solving for epsilon, Initial residual = 4.8724976e-08, Final residual = 2.6981009e-16, No Iterations 3
DILUPBiCGStab:  Solving for k, Initial residual = 1.0661748e-06, Final residual = 3.6343197e-15, No Iterations 3
ExecutionTime = 34.66401 s  ClockTime = 35 s



volFieldValue mindomain_scalar write:
    min() of p = -0.00047425188 at location (1.9686737 0.0004006648 0.5) in cell 99
    min() of k = 0.00013843096 at location (1.9686737 0.053027488 0.5) in cell 3599
    min() of epsilon = 1.8087954e-06 at location (-0.065986977 0.91041837 0.5) in cell 5674
    min() of nut = 8.8402629e-07 at location (0.071208734 0.0020572852 0.5) in cell 217

volFieldValue mindomain_vector write:
    minMag() of U = 0.55245647 at location (1.9686737 0.0004006648 0.5) in cell 99

volFieldValue maxdomain_scalar write:
    max() of p = 0.008765601 at location (0.0015663151 0.0004006648 0.5) in cell 0
    max() of k = 0.0083892712 at location (0.033975179 0.0004006648 0.5) in cell 9
    max() of epsilon = 0.76860468 at location (0.033975179 0.0004006648 0.5) in cell 9
    max() of nut = 0.0011155006 at location (-0.28438808 0.91041837 0.5) in cell 5670

volFieldValue maxdomain_vector write:
    maxMag() of U = 1.0036475 at location (1.9686737 0.15770312 0.5) in cell 6379

yPlus yplus_stats write:
    patch bottom y+ : min = 70.721144, max = 116.35589, average = 83.819469

Time = 1997s

DILUPBiCGStab:  Solving for Ux, Initial residual = 2.112518e-07, Final residual = 2.8681883e-13, No Iterations 3
DILUPBiCGStab:  Solving for Uy, Initial residual = 3.0824808e-06, Final residual = 2.9822258e-12, No Iterations 3
DICPCG:  Solving for p, Initial residual = 3.3420601e-06, Final residual = 3.064434e-08, No Iterations 62
DICPCG:  Solving for p, Initial residual = 3.0644708e-08, Final residual = 9.3471092e-09, No Iterations 13
DICPCG:  Solving for p, Initial residual = 9.3471093e-09, Final residual = 5.4685029e-09, No Iterations 3
time step continuity errors : sum local = 5.4855538e-11, global = -2.4178498e-13, cumulative = 4.322801e-09
DILUPBiCGStab:  Solving for epsilon, Initial residual = 4.8680243e-08, Final residual = 2.6957853e-16, No Iterations 3
DILUPBiCGStab:  Solving for k, Initial residual = 1.0651304e-06, Final residual = 3.6311013e-15, No Iterations 3
ExecutionTime = 34.679943 s  ClockTime = 35 s



volFieldValue mindomain_scalar write:
    min() of p = -0.00047426853 at location (1.9686737 0.0004006648 0.5) in cell 99
    min() of k = 0.0001384346 at location (1.9686737 0.053027488 0.5) in cell 3599
    min() of epsilon = 1.8078983e-06 at location (-0.065986977 0.91041837 0.5) in cell 5674
    min() of nut = 8.8403172e-07 at location (0.071208734 0.0020572852 0.5) in cell 217

volFieldValue mindomain_vector write:
    minMag() of U = 0.55245649 at location (1.9686737 0.0004006648 0.5) in cell 99

volFieldValue maxdomain_scalar write:
    max() of p = 0.0087656047 at location (0.0015663151 0.0004006648 0.5) in cell 0
    max() of k = 0.0083892734 at location (0.033975179 0.0004006648 0.5) in cell 9
    max() of epsilon = 0.76860498 at location (0.033975179 0.0004006648 0.5) in cell 9
    max() of nut = 0.0011160562 at location (-0.28438808 0.91041837 0.5) in cell 5670

volFieldValue maxdomain_vector write:
    maxMag() of U = 1.0036475 at location (1.9686737 0.15770312 0.5) in cell 6379

yPlus yplus_stats write:
    patch bottom y+ : min = 70.721146, max = 116.3559, average = 83.819476

Time = 1998s

DILUPBiCGStab:  Solving for Ux, Initial residual = 2.111865e-07, Final residual = 2.866635e-13, No Iterations 3
DILUPBiCGStab:  Solving for Uy, Initial residual = 3.0812839e-06, Final residual = 2.9811818e-12, No Iterations 3
DICPCG:  Solving for p, Initial residual = 3.3403057e-06, Final residual = 3.0638495e-08, No Iterations 62
DICPCG:  Solving for p, Initial residual = 3.0638863e-08, Final residual = 9.3457605e-09, No Iterations 13
DICPCG:  Solving for p, Initial residual = 9.3457601e-09, Final residual = 5.4680047e-09, No Iterations 3
time step continuity errors : sum local = 5.4849103e-11, global = -2.4155508e-13, cumulative = 4.3225594e-09
DILUPBiCGStab:  Solving for epsilon, Initial residual = 4.8635565e-08, Final residual = 2.6934722e-16, No Iterations 3
DILUPBiCGStab:  Solving for k, Initial residual = 1.0640876e-06, Final residual = 3.6278837e-15, No Iterations 3
ExecutionTime = 34.694524 s  ClockTime = 35 s



volFieldValue mindomain_scalar write:
    min() of p = -0.00047428518 at location (1.9686737 0.0004006648 0.5) in cell 99
    min() of k = 0.00013843823 at location (1.9686737 0.053027488 0.5) in cell 3599
    min() of epsilon = 1.8070021e-06 at location (-0.065986977 0.91041837 0.5) in cell 5674
    min() of nut = 8.8403715e-07 at location (0.071208734 0.0020572852 0.5) in cell 217

volFieldValue mindomain_vector write:
    minMag() of U = 0.5524565 at location (1.9686737 0.0004006648 0.5) in cell 99

volFieldValue maxdomain_scalar write:
    max() of p = 0.0087656083 at location (0.0015663151 0.0004006648 0.5) in cell 0
    max() of k = 0.0083892756 at location (0.033975179 0.0004006648 0.5) in cell 9
    max() of epsilon = 0.76860528 at location (0.033975179 0.0004006648 0.5) in cell 9
    max() of nut = 0.0011166118 at location (-0.28438808 0.91041837 0.5) in cell 5670

volFieldValue maxdomain_vector write:
    maxMag() of U = 1.0036474 at location (1.9686737 0.15770312 0.5) in cell 6379

yPlus yplus_stats write:
    patch bottom y+ : min = 70.721148, max = 116.35591, average = 83.819483

Time = 1999s

DILUPBiCGStab:  Solving for Ux, Initial residual = 2.1112134e-07, Final residual = 2.8651022e-13, No Iterations 3
DILUPBiCGStab:  Solving for Uy, Initial residual = 3.0801454e-06, Final residual = 2.9800853e-12, No Iterations 3
DICPCG:  Solving for p, Initial residual = 3.3385591e-06, Final residual = 3.06332e-08, No Iterations 62
DICPCG:  Solving for p, Initial residual = 3.0633571e-08, Final residual = 9.344583e-09, No Iterations 13
DICPCG:  Solving for p, Initial residual = 9.3445836e-09, Final residual = 5.4675954e-09, No Iterations 3
time step continuity errors : sum local = 5.4843414e-11, global = -2.4094221e-13, cumulative = 4.3223185e-09
DILUPBiCGStab:  Solving for epsilon, Initial residual = 4.8590939e-08, Final residual = 2.6911615e-16, No Iterations 3
DILUPBiCGStab:  Solving for k, Initial residual = 1.0630462e-06, Final residual = 3.6246629e-15, No Iterations 3
ExecutionTime = 34.709016 s  ClockTime = 35 s



volFieldValue mindomain_scalar write:
    min() of p = -0.00047430183 at location (1.9686737 0.0004006648 0.5) in cell 99
    min() of k = 0.00013844186 at location (1.9686737 0.053027488 0.5) in cell 3599
    min() of epsilon = 1.8061068e-06 at location (-0.065986977 0.91041837 0.5) in cell 5674
    min() of nut = 8.8404256e-07 at location (0.071208734 0.0020572852 0.5) in cell 217

volFieldValue mindomain_vector write:
    minMag() of U = 0.55245652 at location (1.9686737 0.0004006648 0.5) in cell 99

volFieldValue maxdomain_scalar write:
    max() of p = 0.008765612 at location (0.0015663151 0.0004006648 0.5) in cell 0
    max() of k = 0.0083892778 at location (0.033975179 0.0004006648 0.5) in cell 9
    max() of epsilon = 0.76860558 at location (0.033975179 0.0004006648 0.5) in cell 9
    max() of nut = 0.0011171674 at location (-0.28438808 0.91041837 0.5) in cell 5670

volFieldValue maxdomain_vector write:
    maxMag() of U = 1.0036473 at location (1.9686737 0.15770312 0.5) in cell 6379

yPlus yplus_stats write:
    patch bottom y+ : min = 70.721149, max = 116.35592, average = 83.819491

Time = 2000s

DILUPBiCGStab:  Solving for Ux, Initial residual = 2.1105615e-07, Final residual = 2.8635932e-13, No Iterations 3
DILUPBiCGStab:  Solving for Uy, Initial residual = 3.0790177e-06, Final residual = 2.9787979e-12, No Iterations 3
DICPCG:  Solving for p, Initial residual = 3.3368258e-06, Final residual = 3.0628804e-08, No Iterations 62
DICPCG:  Solving for p, Initial residual = 3.0629172e-08, Final residual = 9.999472e-09, No Iterations 12
DICPCG:  Solving for p, Initial residual = 9.9994719e-09, Final residual = 6.1371983e-09, No Iterations 3
time step continuity errors : sum local = 6.1557926e-11, global = -6.0502072e-13, cumulative = 4.3217135e-09
DILUPBiCGStab:  Solving for epsilon, Initial residual = 4.8546365e-08, Final residual = 2.6888526e-16, No Iterations 3
DILUPBiCGStab:  Solving for k, Initial residual = 1.0620063e-06, Final residual = 3.6214398e-15, No Iterations 3
ExecutionTime = 34.737883 s  ClockTime = 35 s



volFieldValue mindomain_scalar write:
    min() of p = -0.00047431846 at location (1.9686737 0.0004006648 0.5) in cell 99
    min() of k = 0.00013844548 at location (1.9686737 0.053027488 0.5) in cell 3599
    min() of epsilon = 1.8052124e-06 at location (-0.065986977 0.91041837 0.5) in cell 5674
    min() of nut = 8.8404798e-07 at location (0.071208734 0.0020572852 0.5) in cell 217

volFieldValue mindomain_vector write:
    minMag() of U = 0.55245654 at location (1.9686737 0.0004006648 0.5) in cell 99

volFieldValue maxdomain_scalar write:
    max() of p = 0.0087656157 at location (0.0015663151 0.0004006648 0.5) in cell 0
    max() of k = 0.00838928 at location (0.033975179 0.0004006648 0.5) in cell 9
    max() of epsilon = 0.76860588 at location (0.033975179 0.0004006648 0.5) in cell 9
    max() of nut = 0.001117723 at location (-0.28438808 0.91041837 0.5) in cell 5670

volFieldValue maxdomain_vector write:
    maxMag() of U = 1.0036473 at location (1.9686737 0.15770312 0.5) in cell 6379

yPlus yplus_stats write:
    patch bottom y+ : min = 70.721151, max = 116.35593, average = 83.819498

End

