/*---------------------------------------------------------------------------*\
  =========                 |
  \\      /  F ield         | OpenFOAM: The Open Source CFD Toolbox
   \\    /   O peration     | Website:  https://openfoam.org
    \\  /    A nd           | Version:  12
     \\/     M anipulation  |
\*---------------------------------------------------------------------------*/
Build  : 12-86e126a7bc4d
Exec   : foamRun
Date   : Jun 15 2026
Time   : 00:50:24
Host   : "NotebookdoDan"
PID    : 136559
I/O    : uncollated
Case   : /home/danilom/OpenFOAM/danilom-12/run/GT2/RANS/KEpsilon_lowRE_V1
nProcs : 1
sigFpe : Enabling floating point exception trapping (FOAM_SIGFPE).
fileModificationChecking : Monitoring run-time modified files using timeStampMaster (fileModificationSkew 10)
allowSystemOperations : Allowing user-supplied system call operations

// * * * * * * * * * * * * * * * * * * * * * * * * * * * * * * * * * * * * * //
Create time

Create mesh for time = 0

Selecting solver incompressibleFluid
Selecting viscosity model Newtonian
Selecting turbulence model type RAS
Selecting RAS turbulence model kEpsilon
RAS
{
    RASModel        kEpsilon;
    turbulence      on;
    printCoeffs     on;
    Cmu             0.09;
    C1              1.44;
    C2              1.92;
    C3              0;
    sigmak          1;
    sigmaEps        1.3;
}

No MRF models present


SIMPLE: Convergence criteria found
        p: tolerance 1e-06
        U: tolerance 1e-06
        "(k|omega|epsilon)": tolerance 1e-06


SIMPLE: Operating solver in steady-state mode with 1 outer corrector
SIMPLE: Operating solver in SIMPLE mode



Starting time loop

    - selecting all cells
    - selected 13056 cell(s) with volume 2.33333


    - selecting all cells
    - selected 13056 cell(s) with volume 2.33333


    - selecting all cells
    - selected 13056 cell(s) with volume 2.33333


    - selecting all cells
    - selected 13056 cell(s) with volume 2.33333


    - selecting all cells
    - selected 13056 cell(s) with volume 2.33333


    - selecting all cells
    - selected 13056 cell(s) with volume 2.33333




volFieldValue mindomain_scalar write:
    min() of p = 0 at location (-0.31329649 1.0023271e-06 0.5) in cell 0
    min() of k = 0.00015 at location (-0.31329649 1.0023271e-06 0.5) in cell 0
    min() of epsilon = 0.01 at location (-0.31329649 1.0023271e-06 0.5) in cell 0
    min() of nut = 2.025e-07 at location (-0.31329649 1.0023271e-06 0.5) in cell 0

volFieldValue mindomain_vector write:
    minMag() of U = 1 at location (-0.31329649 1.0023271e-06 0.5) in cell 0

volFieldValue maxdomain_scalar write:
    max() of p = 0 at location (-0.31329649 1.0023271e-06 0.5) in cell 0
    max() of k = 0.00015 at location (-0.31329649 1.0023271e-06 0.5) in cell 0
    max() of epsilon = 0.01 at location (-0.31329649 1.0023271e-06 0.5) in cell 0
    max() of nut = 2.025e-07 at location (-0.31329649 1.0023271e-06 0.5) in cell 0

volFieldValue maxdomain_vector write:
    maxMag() of U = 1 at location (-0.31329649 1.0023271e-06 0.5) in cell 0

yPlus yplus_stats write:
    patch bottom y+ : min = 2.2404971, max = 2.2404971, average = 2.2404971

Time = 1s

DILUPBiCGStab:  Solving for Ux, Initial residual = 1, Final residual = 2.6965452e-17, No Iterations 3
DILUPBiCGStab:  Solving for Uy, Initial residual = 1, Final residual = 7.6166083e-18, No Iterations 3
DICPCG:  Solving for p, Initial residual = 1, Final residual = 0.0080286107, No Iterations 96
DICPCG:  Solving for p, Initial residual = 2.0195088e-05, Final residual = 1.8470663e-07, No Iterations 21
DICPCG:  Solving for p, Initial residual = 1.8471017e-07, Final residual = 9.5753213e-09, No Iterations 28
time step continuity errors : sum local = 2.334457e-12, global = -2.9127321e-13, cumulative = -2.9127321e-13
DILUPBiCGStab:  Solving for epsilon, Initial residual = 0.015007857, Final residual = 3.0272348e-16, No Iterations 3
DILUPBiCGStab:  Solving for k, Initial residual = 1, Final residual = 1.149057e-12, No Iterations 3
ExecutionTime = 0.182236 s  ClockTime = 0 s



volFieldValue mindomain_scalar write:
    min() of p = 2.1375426e-07 at location (1.9785208 0.94257453 0.5) in cell 13055
    min() of k = 9.3281234e-05 at location (1.9785208 0.94257453 0.5) in cell 13055
    min() of epsilon = 0.0054167625 at location (1.9785208 0.94257453 0.5) in cell 13055
    min() of nut = 1.3046859e-10 at location (0.0020059438 1.0023271e-06 0.5) in cell 24

volFieldValue mindomain_vector write:
    minMag() of U = 0.59032828 at location (1.4630191 1.0023271e-06 0.5) in cell 123

volFieldValue maxdomain_scalar write:
    max() of p = 0.00045904959 at location (-0.0020050773 1.0023271e-06 0.5) in cell 23
    max() of k = 0.0026411277 at location (1.4630191 3.0219182e-06 0.5) in cell 259
    max() of epsilon = 59.721723 at location (0.87703858 1.0023271e-06 0.5) in cell 109
    max() of nut = 2.0530128e-07 at location (1.1193514 0.00033894396 0.5) in cell 4195

volFieldValue maxdomain_vector write:
    maxMag() of U = 1.000057 at location (0.0060340464 0.0011486725 0.5) in cell 5465

yPlus yplus_stats write:
    patch bottom y+ : min = 1.7206408, max = 1.7216682, average = 1.7207596

Time = 2s

DILUPBiCGStab:  Solving for Ux, Initial residual = 0.14474186, Final residual = 5.5842155e-12, No Iterations 3
DILUPBiCGStab:  Solving for Uy, Initial residual = 0.14328468, Final residual = 5.844198e-09, No Iterations 3
DICPCG:  Solving for p, Initial residual = 0.010030145, Final residual = 9.9722654e-05, No Iterations 80
DICPCG:  Solving for p, Initial residual = 5.8431819e-05, Final residual = 5.4144542e-07, No Iterations 32
DICPCG:  Solving for p, Initial residual = 5.415291e-07, Final residual = 9.9763142e-09, No Iterations 65
time step continuity errors : sum local = 2.9414443e-12, global = 7.1337909e-14, cumulative = -2.199353e-13
DILUPBiCGStab:  Solving for epsilon, Initial residual = 0.013682997, Final residual = 1.4439588e-16, No Iterations 3
DILUPBiCGStab:  Solving for k, Initial residual = 0.20607748, Final residual = 4.3993985e-13, No Iterations 3
ExecutionTime = 0.247061 s  ClockTime = 0 s



volFieldValue mindomain_scalar write:
    min() of p = 3.1140853e-07 at location (1.9785208 0.94257453 0.5) in cell 13055
    min() of k = 5.9143713e-05 at location (1.9785208 0.94257453 0.5) in cell 13055
    min() of epsilon = 0.002964396 at location (1.9785208 0.94257453 0.5) in cell 13055
    min() of nut = 8.7783638e-11 at location (0.0020059438 1.0023271e-06 0.5) in cell 24

volFieldValue mindomain_vector write:
    minMag() of U = 0.34018834 at location (1.9785208 1.0023271e-06 0.5) in cell 135

volFieldValue maxdomain_scalar write:
    max() of p = 0.00078029493 at location (-0.0020050773 1.0023271e-06 0.5) in cell 23
    max() of k = 0.0039177903 at location (1.4630191 3.0219182e-06 0.5) in cell 259
    max() of epsilon = 117.37878 at location (1.4630191 1.0023271e-06 0.5) in cell 123
    max() of nut = 2.0792251e-07 at location (1.0763929 0.00038297165 0.5) in cell 4330

volFieldValue maxdomain_vector write:
    maxMag() of U = 1.0001198 at location (0.0060340464 0.0011486725 0.5) in cell 5465

yPlus yplus_stats write:
    patch bottom y+ : min = 1.3059132, max = 1.3083531, average = 1.3060723

Time = 3s

DILUPBiCGStab:  Solving for Ux, Initial residual = 0.051720437, Final residual = 6.2651217e-12, No Iterations 3
DILUPBiCGStab:  Solving for Uy, Initial residual = 0.092346444, Final residual = 3.780559e-09, No Iterations 3
DICPCG:  Solving for p, Initial residual = 0.011150103, Final residual = 8.1850756e-05, No Iterations 83
DICPCG:  Solving for p, Initial residual = 9.8985796e-05, Final residual = 9.3458743e-07, No Iterations 38
DICPCG:  Solving for p, Initial residual = 9.3463537e-07, Final residual = 9.1662865e-09, No Iterations 76
time step continuity errors : sum local = 1.9719392e-12, global = 1.211598e-13, cumulative = -9.8775499e-14
DILUPBiCGStab:  Solving for epsilon, Initial residual = 0.010781219, Final residual = 9.2672088e-17, No Iterations 3
DILUPBiCGStab:  Solving for k, Initial residual = 0.089364921, Final residual = 2.9464057e-13, No Iterations 3
ExecutionTime = 0.315234 s  ClockTime = 0 s



volFieldValue mindomain_scalar write:
    min() of p = 2.5830706e-07 at location (1.9785208 0.94257453 0.5) in cell 13055
    min() of k = 3.8306854e-05 at location (1.9785208 0.94257453 0.5) in cell 13055
    min() of epsilon = 0.0016421239 at location (1.9785208 0.94257453 0.5) in cell 13055
    min() of nut = 8.4627585e-11 at location (0.0020059438 1.0023271e-06 0.5) in cell 24

volFieldValue mindomain_vector write:
    minMag() of U = 0.23162997 at location (0.0060340464 1.0023271e-06 0.5) in cell 25

volFieldValue maxdomain_scalar write:
    max() of p = 0.00085971355 at location (-0.0020050773 1.0023271e-06 0.5) in cell 23
    max() of k = 0.0039534672 at location (1.4630191 3.0219182e-06 0.5) in cell 259
    max() of epsilon = 135.08025 at location (1.4630191 1.0023271e-06 0.5) in cell 123
    max() of nut = 2.1040605e-07 at location (1.0334345 0.00038297165 0.5) in cell 4329

volFieldValue maxdomain_vector write:
    maxMag() of U = 1.0001686 at location (0.0060340464 0.0014661282 0.5) in cell 5737

yPlus yplus_stats write:
    patch bottom y+ : min = 1.0775138, max = 1.0812018, average = 1.0776932

Time = 4s

DILUPBiCGStab:  Solving for Ux, Initial residual = 0.027733328, Final residual = 5.0011909e-12, No Iterations 3
DILUPBiCGStab:  Solving for Uy, Initial residual = 0.059919621, Final residual = 2.5476604e-09, No Iterations 3
DICPCG:  Solving for p, Initial residual = 0.013763636, Final residual = 0.00011237665, No Iterations 89
DICPCG:  Solving for p, Initial residual = 0.00017847016, Final residual = 1.7294285e-06, No Iterations 38
DICPCG:  Solving for p, Initial residual = 1.7296287e-06, Final residual = 1.67614e-08, No Iterations 80
time step continuity errors : sum local = 2.4322404e-12, global = 2.6849525e-14, cumulative = -7.1925974e-14
DILUPBiCGStab:  Solving for epsilon, Initial residual = 0.0055436042, Final residual = 6.6003356e-17, No Iterations 3
DILUPBiCGStab:  Solving for k, Initial residual = 0.061974905, Final residual = 2.5005171e-13, No Iterations 3
ExecutionTime = 0.430414 s  ClockTime = 0 s



volFieldValue mindomain_scalar write:
    min() of p = -5.4332413e-05 at location (0.010095216 1.0023271e-06 0.5) in cell 26
    min() of k = 2.5393042e-05 at location (1.9785208 0.94257453 0.5) in cell 13055
    min() of epsilon = 0.00092278713 at location (1.9785208 0.94257453 0.5) in cell 13055
    min() of nut = 7.1928729e-11 at location (0.0020059438 1.0023271e-06 0.5) in cell 24

volFieldValue mindomain_vector write:
    minMag() of U = 0.17702774 at location (0.0060340464 1.0023271e-06 0.5) in cell 25

volFieldValue maxdomain_scalar write:
    max() of p = 0.00085178945 at location (-0.0020050773 1.0023271e-06 0.5) in cell 23
    max() of k = 0.0034158849 at location (0.014190747 3.0219182e-06 0.5) in cell 163
    max() of epsilon = 142.30707 at location (1.4630191 1.0023271e-06 0.5) in cell 123
    max() of nut = 3.0218746e-07 at location (-0.31329649 0.94257453 0.5) in cell 12920

volFieldValue maxdomain_vector write:
    maxMag() of U = 1.0001972 at location (0.0060340464 0.0023884425 0.5) in cell 6281

yPlus yplus_stats write:
    patch bottom y+ : min = 0.94196332, max = 0.94697218, average = 0.9423084

Time = 5s

DILUPBiCGStab:  Solving for Ux, Initial residual = 0.018162885, Final residual = 3.0613499e-12, No Iterations 3
DILUPBiCGStab:  Solving for Uy, Initial residual = 0.041359088, Final residual = 2.6316081e-09, No Iterations 3
DICPCG:  Solving for p, Initial residual = 0.017879042, Final residual = 0.0001761358, No Iterations 84
DICPCG:  Solving for p, Initial residual = 0.00024440843, Final residual = 2.1798771e-06, No Iterations 47
DICPCG:  Solving for p, Initial residual = 2.1802279e-06, Final residual = 2.168436e-08, No Iterations 78
time step continuity errors : sum local = 2.6918662e-12, global = 1.3828157e-13, cumulative = 6.6355593e-14
DILUPBiCGStab:  Solving for epsilon, Initial residual = 0.0041908166, Final residual = 5.8899218e-17, No Iterations 3
DILUPBiCGStab:  Solving for k, Initial residual = 0.047424744, Final residual = 2.2847073e-13, No Iterations 3
ExecutionTime = 0.555061 s  ClockTime = 0 s



volFieldValue mindomain_scalar write:
    min() of p = -0.00019956526 at location (0.0060340464 3.0219182e-06 0.5) in cell 161
    min() of k = 1.7256602e-05 at location (1.9785208 0.94257453 0.5) in cell 13055
    min() of epsilon = 0.00052735776 at location (1.9785208 0.94257453 0.5) in cell 13055
    min() of nut = 5.8337957e-11 at location (0.0020059438 1.0023271e-06 0.5) in cell 24

volFieldValue mindomain_vector write:
    minMag() of U = 0.14558382 at location (0.0060340464 1.0023271e-06 0.5) in cell 25

volFieldValue maxdomain_scalar write:
    max() of p = 0.00087029571 at location (-0.0020050773 1.0023271e-06 0.5) in cell 23
    max() of k = 0.0027549812 at location (0.014190747 3.0219182e-06 0.5) in cell 163
    max() of epsilon = 134.66149 at location (1.4630191 1.0023271e-06 0.5) in cell 123
    max() of nut = 5.5758866e-07 at location (-0.31329649 0.94257453 0.5) in cell 12920

volFieldValue maxdomain_vector write:
    maxMag() of U = 1.000232 at location (0.0020059438 0.00038297165 0.5) in cell 4240

yPlus yplus_stats write:
    patch bottom y+ : min = 0.85420824, max = 0.86043466, average = 0.85468081

Time = 6s

DILUPBiCGStab:  Solving for Ux, Initial residual = 0.013324836, Final residual = 2.3276721e-12, No Iterations 3
DILUPBiCGStab:  Solving for Uy, Initial residual = 0.031916819, Final residual = 1.3730493e-09, No Iterations 3
DICPCG:  Solving for p, Initial residual = 0.021699043, Final residual = 0.00021606985, No Iterations 70
DICPCG:  Solving for p, Initial residual = 0.00023168441, Final residual = 2.1785719e-06, No Iterations 69
DICPCG:  Solving for p, Initial residual = 2.1796461e-06, Final residual = 1.8856912e-08, No Iterations 68
time step continuity errors : sum local = 2.461983e-12, global = 4.4105383e-13, cumulative = 5.0740942e-13
DILUPBiCGStab:  Solving for epsilon, Initial residual = 0.0054908615, Final residual = 5.9728406e-17, No Iterations 3
DILUPBiCGStab:  Solving for k, Initial residual = 0.040962563, Final residual = 2.2162101e-13, No Iterations 3
ExecutionTime = 0.625479 s  ClockTime = 0 s



volFieldValue mindomain_scalar write:
    min() of p = -0.00033360644 at location (0.0060340464 3.0219182e-06 0.5) in cell 161
    min() of k = 1.2038582e-05 at location (1.9785208 0.94257453 0.5) in cell 13055
    min() of epsilon = 0.00030732652 at location (1.9785208 0.94257453 0.5) in cell 13055
    min() of nut = 4.6343277e-11 at location (0.0020059438 1.0023271e-06 0.5) in cell 24

volFieldValue mindomain_vector write:
    minMag() of U = 0.12536161 at location (0.0060340464 1.0023271e-06 0.5) in cell 25

volFieldValue maxdomain_scalar write:
    max() of p = 0.00093074573 at location (-0.0020050773 1.0023271e-06 0.5) in cell 23
    max() of k = 0.0024777756 at location (0.0060340464 5.0865428e-06 0.5) in cell 297
    max() of epsilon = 117.97634 at location (1.1623099 1.0023271e-06 0.5) in cell 116
    max() of nut = 9.3541237e-07 at location (-0.31329649 0.94257453 0.5) in cell 12920

volFieldValue maxdomain_vector write:
    maxMag() of U = 1.0002874 at location (0.0020059438 0.0002999673 0.5) in cell 3968

yPlus yplus_stats write:
    patch bottom y+ : min = 0.79265808, max = 0.80003604, average = 0.79323804

Time = 7s

DILUPBiCGStab:  Solving for Ux, Initial residual = 0.01047814, Final residual = 2.1978279e-12, No Iterations 3
DILUPBiCGStab:  Solving for Uy, Initial residual = 0.027158005, Final residual = 8.4906332e-09, No Iterations 3
DICPCG:  Solving for p, Initial residual = 0.022218775, Final residual = 0.00021834587, No Iterations 70
DICPCG:  Solving for p, Initial residual = 0.00021162763, Final residual = 2.0109606e-06, No Iterations 78
DICPCG:  Solving for p, Initial residual = 2.0043515e-06, Final residual = 1.8943142e-08, No Iterations 37
time step continuity errors : sum local = 2.6437559e-12, global = -2.1189708e-13, cumulative = 2.9551234e-13
DILUPBiCGStab:  Solving for epsilon, Initial residual = 0.0074781082, Final residual = 6.1893554e-17, No Iterations 3
DILUPBiCGStab:  Solving for k, Initial residual = 0.035815212, Final residual = 2.4583881e-13, No Iterations 3
ExecutionTime = 0.69112 s  ClockTime = 0 s



volFieldValue mindomain_scalar write:
    min() of p = -0.00045400007 at location (0.0060340464 3.0219182e-06 0.5) in cell 161
    min() of k = 8.6283371e-06 at location (1.9785208 0.94257453 0.5) in cell 13055
    min() of epsilon = 0.00018315082 at location (1.9785208 0.94257453 0.5) in cell 13055
    min() of nut = 3.6501576e-11 at location (0.0020059438 1.0023271e-06 0.5) in cell 24

volFieldValue mindomain_vector write:
    minMag() of U = 0.1112061 at location (0.0060340464 1.0023271e-06 0.5) in cell 25

volFieldValue maxdomain_scalar write:
    max() of p = 0.001010638 at location (-0.0020050773 1.0023271e-06 0.5) in cell 23
    max() of k = 0.0021642277 at location (0.0060340464 5.0865428e-06 0.5) in cell 297
    max() of epsilon = 98.448273 at location (0.014190747 1.0023271e-06 0.5) in cell 27
    max() of nut = 1.3548903e-06 at location (-0.31329649 0.94257453 0.5) in cell 12920

volFieldValue maxdomain_vector write:
    maxMag() of U = 1.0003498 at location (0.0020059438 0.0002999673 0.5) in cell 3968

yPlus yplus_stats write:
    patch bottom y+ : min = 0.74656149, max = 0.75507354, average = 0.74725058

Time = 8s

DILUPBiCGStab:  Solving for Ux, Initial residual = 0.0086184442, Final residual = 2.463188e-12, No Iterations 3
DILUPBiCGStab:  Solving for Uy, Initial residual = 0.024429242, Final residual = 6.7449485e-09, No Iterations 3
DICPCG:  Solving for p, Initial residual = 0.021512331, Final residual = 0.00020637691, No Iterations 46
DICPCG:  Solving for p, Initial residual = 0.00020384892, Final residual = 1.8932023e-06, No Iterations 82
DICPCG:  Solving for p, Initial residual = 1.8713645e-06, Final residual = 1.8479033e-08, No Iterations 42
time step continuity errors : sum local = 2.6408439e-12, global = -1.0971964e-13, cumulative = 1.8579271e-13
DILUPBiCGStab:  Solving for epsilon, Initial residual = 0.0089044112, Final residual = 6.9306529e-17, No Iterations 3
DILUPBiCGStab:  Solving for k, Initial residual = 0.032328146, Final residual = 2.6878416e-13, No Iterations 3
ExecutionTime = 0.750157 s  ClockTime = 0 s



volFieldValue mindomain_scalar write:
    min() of p = -0.00056560486 at location (0.0060340464 1.0023271e-06 0.5) in cell 25
    min() of k = 6.3545319e-06 at location (1.9785208 0.94257453 0.5) in cell 13055
    min() of epsilon = 0.00011191871 at location (1.9785208 0.94257453 0.5) in cell 13055
    min() of nut = 2.8732128e-11 at location (0.0020059438 1.0023271e-06 0.5) in cell 24

volFieldValue mindomain_vector write:
    minMag() of U = 0.10065072 at location (0.0060340464 1.0023271e-06 0.5) in cell 25

volFieldValue maxdomain_scalar write:
    max() of p = 0.0010912197 at location (-0.0020050773 1.0023271e-06 0.5) in cell 23
    max() of k = 0.0018583217 at location (0.0060340464 5.0865428e-06 0.5) in cell 297
    max() of epsilon = 79.836417 at location (0.014190747 1.0023271e-06 0.5) in cell 27
    max() of nut = 1.6813338e-06 at location (-0.31329649 0.94257453 0.5) in cell 12920

volFieldValue maxdomain_vector write:
    maxMag() of U = 1.0004146 at location (0.0020059438 0.0002999673 0.5) in cell 3968

yPlus yplus_stats write:
    patch bottom y+ : min = 0.71024484, max = 0.71988385, average = 0.71104679

Time = 9s

DILUPBiCGStab:  Solving for Ux, Initial residual = 0.0073082165, Final residual = 2.6390906e-12, No Iterations 3
DILUPBiCGStab:  Solving for Uy, Initial residual = 0.022395956, Final residual = 5.9984222e-09, No Iterations 3
DICPCG:  Solving for p, Initial residual = 0.020730661, Final residual = 0.00017809341, No Iterations 46
DICPCG:  Solving for p, Initial residual = 0.00017803968, Final residual = 1.7538736e-06, No Iterations 75
DICPCG:  Solving for p, Initial residual = 1.7607832e-06, Final residual = 1.4881089e-08, No Iterations 40
time step continuity errors : sum local = 2.1240495e-12, global = 1.7833673e-13, cumulative = 3.6412944e-13
DILUPBiCGStab:  Solving for epsilon, Initial residual = 0.010228425, Final residual = 7.8227771e-17, No Iterations 3
DILUPBiCGStab:  Solving for k, Initial residual = 0.028972613, Final residual = 3.0012689e-13, No Iterations 3
ExecutionTime = 0.805232 s  ClockTime = 0 s



volFieldValue mindomain_scalar write:
    min() of p = -0.00067031929 at location (0.0060340464 1.0023271e-06 0.5) in cell 25
    min() of k = 4.8063652e-06 at location (1.9785208 0.94257453 0.5) in cell 13055
    min() of epsilon = 7.0288428e-05 at location (1.9785208 0.94257453 0.5) in cell 13055
    min() of nut = 2.2732177e-11 at location (0.0020059438 1.0023271e-06 0.5) in cell 24

volFieldValue mindomain_vector write:
    minMag() of U = 0.092400439 at location (0.0060340464 1.0023271e-06 0.5) in cell 25

volFieldValue maxdomain_scalar write:
    max() of p = 0.0011686762 at location (-0.0020050773 1.0023271e-06 0.5) in cell 23
    max() of k = 0.0015840159 at location (0.0060340464 5.0865428e-06 0.5) in cell 297
    max() of epsilon = 63.808331 at location (0.014190747 1.0023271e-06 0.5) in cell 27
    max() of nut = 1.9627811e-06 at location (-0.31329649 0.94257453 0.5) in cell 12920

volFieldValue maxdomain_vector write:
    maxMag() of U = 1.0004743 at location (0.0020059438 0.00026546084 0.5) in cell 3832

yPlus yplus_stats write:
    patch bottom y+ : min = 0.68051147, max = 0.69127374, average = 0.68142894

Time = 10s

DILUPBiCGStab:  Solving for Ux, Initial residual = 0.0063356667, Final residual = 2.7342515e-12, No Iterations 3
DILUPBiCGStab:  Solving for Uy, Initial residual = 0.020585603, Final residual = 5.9399474e-09, No Iterations 3
DICPCG:  Solving for p, Initial residual = 0.020248291, Final residual = 0.0001933987, No Iterations 46
DICPCG:  Solving for p, Initial residual = 0.00019406156, Final residual = 1.6929695e-06, No Iterations 75
DICPCG:  Solving for p, Initial residual = 1.7060405e-06, Final residual = 1.6764421e-08, No Iterations 29
time step continuity errors : sum local = 2.3911191e-12, global = 1.8205928e-15, cumulative = 3.6595003e-13
DILUPBiCGStab:  Solving for epsilon, Initial residual = 0.010952256, Final residual = 8.952009e-17, No Iterations 3
DILUPBiCGStab:  Solving for k, Initial residual = 0.02603036, Final residual = 3.2905701e-13, No Iterations 3
ExecutionTime = 0.858474 s  ClockTime = 1 s



volFieldValue mindomain_scalar write:
    min() of p = -0.00076877574 at location (0.0060340464 1.0023271e-06 0.5) in cell 25
    min() of k = 3.729213e-06 at location (1.9785208 0.94257453 0.5) in cell 13055
    min() of epsilon = 4.5443361e-05 at location (1.9785208 0.94257453 0.5) in cell 13055
    min() of nut = 1.8150491e-11 at location (0.0020059438 1.0023271e-06 0.5) in cell 24

volFieldValue mindomain_vector write:
    minMag() of U = 0.085720033 at location (0.0060340464 1.0023271e-06 0.5) in cell 25

volFieldValue maxdomain_scalar write:
    max() of p = 0.001243493 at location (-0.0020050773 1.0023271e-06 0.5) in cell 23
    max() of k = 0.0013492723 at location (0.0060340464 7.2269684e-06 0.5) in cell 433
    max() of epsilon = 50.758247 at location (0.014190747 1.0023271e-06 0.5) in cell 27
    max() of nut = 2.229433e-06 at location (-0.31329649 0.94257453 0.5) in cell 12920

volFieldValue maxdomain_vector write:
    maxMag() of U = 1.0005293 at location (0.0020059438 0.00026546084 0.5) in cell 3832

yPlus yplus_stats write:
    patch bottom y+ : min = 0.65544862, max = 0.66732666, average = 0.65648032

Time = 11s

DILUPBiCGStab:  Solving for Ux, Initial residual = 0.0055834827, Final residual = 2.6662793e-12, No Iterations 3
DILUPBiCGStab:  Solving for Uy, Initial residual = 0.018947356, Final residual = 7.396141e-09, No Iterations 3
DICPCG:  Solving for p, Initial residual = 0.019675652, Final residual = 0.00019567732, No Iterations 45
DICPCG:  Solving for p, Initial residual = 0.00019579565, Final residual = 1.8116706e-06, No Iterations 76
DICPCG:  Solving for p, Initial residual = 1.8164356e-06, Final residual = 1.5077656e-08, No Iterations 38
time step continuity errors : sum local = 2.1703445e-12, global = 1.6135904e-13, cumulative = 5.2730908e-13
DILUPBiCGStab:  Solving for epsilon, Initial residual = 0.011433027, Final residual = 1.0309782e-16, No Iterations 3
DILUPBiCGStab:  Solving for k, Initial residual = 0.023649684, Final residual = 3.5244245e-13, No Iterations 3
ExecutionTime = 0.962525 s  ClockTime = 1 s



volFieldValue mindomain_scalar write:
    min() of p = -0.00086176495 at location (0.0060340464 1.0023271e-06 0.5) in cell 25
    min() of k = 2.9631303e-06 at location (1.9785208 0.94257453 0.5) in cell 13055
    min() of epsilon = 3.0270078e-05 at location (1.9785208 0.94257453 0.5) in cell 13055
    min() of nut = 1.4665867e-11 at location (0.0020059438 1.0023271e-06 0.5) in cell 24

volFieldValue mindomain_vector write:
    minMag() of U = 0.080163386 at location (0.0060340464 1.0023271e-06 0.5) in cell 25

volFieldValue maxdomain_scalar write:
    max() of p = 0.0013174895 at location (-0.0020050773 1.0023271e-06 0.5) in cell 23
    max() of k = 0.001222259 at location (0.0060340464 7.2269684e-06 0.5) in cell 433
    max() of epsilon = 40.465911 at location (0.014190747 1.0023271e-06 0.5) in cell 27
    max() of nut = 2.4917869e-06 at location (-0.31329649 0.94257453 0.5) in cell 12920

volFieldValue maxdomain_vector write:
    maxMag() of U = 1.0005823 at location (0.0020059438 0.00023491035 0.5) in cell 3696

yPlus yplus_stats write:
    patch bottom y+ : min = 0.63384747, max = 0.64682586, average = 0.63498666

Time = 12s

DILUPBiCGStab:  Solving for Ux, Initial residual = 0.0049843124, Final residual = 2.4613435e-12, No Iterations 3
DILUPBiCGStab:  Solving for Uy, Initial residual = 0.01756839, Final residual = 1.9028185e-09, No Iterations 3
DICPCG:  Solving for p, Initial residual = 0.018944013, Final residual = 0.00018930407, No Iterations 45
DICPCG:  Solving for p, Initial residual = 0.00018876661, Final residual = 1.6997419e-06, No Iterations 76
DICPCG:  Solving for p, Initial residual = 1.6934913e-06, Final residual = 1.6318515e-08, No Iterations 35
time step continuity errors : sum local = 2.3866471e-12, global = -2.4192368e-13, cumulative = 2.853854e-13
DILUPBiCGStab:  Solving for epsilon, Initial residual = 0.011500509, Final residual = 1.1868658e-16, No Iterations 3
DILUPBiCGStab:  Solving for k, Initial residual = 0.021465002, Final residual = 3.7759805e-13, No Iterations 3
ExecutionTime = 1.08417 s  ClockTime = 1 s



volFieldValue mindomain_scalar write:
    min() of p = -0.00095020914 at location (0.0060340464 1.0023271e-06 0.5) in cell 25
    min() of k = 2.4062326e-06 at location (1.9785208 0.94257453 0.5) in cell 13055
    min() of epsilon = 2.0771646e-05 at location (1.9785208 0.94257453 0.5) in cell 13055
    min() of nut = 1.2012363e-11 at location (0.0020059438 1.0023271e-06 0.5) in cell 24

volFieldValue mindomain_vector write:
    minMag() of U = 0.075442993 at location (0.0060340464 1.0023271e-06 0.5) in cell 25

volFieldValue maxdomain_scalar write:
    max() of p = 0.001391704 at location (-0.0020050773 1.0023271e-06 0.5) in cell 23
    max() of k = 0.001104457 at location (0.0060340464 7.2269684e-06 0.5) in cell 433
    max() of epsilon = 32.487361 at location (0.014190747 1.0023271e-06 0.5) in cell 27
    max() of nut = 2.7528355e-06 at location (-0.31329649 0.94257453 0.5) in cell 12920

volFieldValue maxdomain_vector write:
    maxMag() of U = 1.000633 at location (0.0020059438 0.00023491035 0.5) in cell 3696

yPlus yplus_stats write:
    patch bottom y+ : min = 0.61490153, max = 0.62896493, average = 0.61614038

Time = 13s

DILUPBiCGStab:  Solving for Ux, Initial residual = 0.0044950993, Final residual = 2.2674321e-12, No Iterations 3
DILUPBiCGStab:  Solving for Uy, Initial residual = 0.016443586, Final residual = 1.3712084e-09, No Iterations 3
DICPCG:  Solving for p, Initial residual = 0.018210789, Final residual = 0.00016939153, No Iterations 46
DICPCG:  Solving for p, Initial residual = 0.00016850222, Final residual = 1.5783078e-06, No Iterations 75
DICPCG:  Solving for p, Initial residual = 1.5670498e-06, Final residual = 1.4495669e-08, No Iterations 35
time step continuity errors : sum local = 2.160423e-12, global = -3.5984455e-14, cumulative = 2.4940095e-13
DILUPBiCGStab:  Solving for epsilon, Initial residual = 0.011356392, Final residual = 1.3594449e-16, No Iterations 3
DILUPBiCGStab:  Solving for k, Initial residual = 0.019496919, Final residual = 4.0789265e-13, No Iterations 3
ExecutionTime = 1.163359 s  ClockTime = 1 s



volFieldValue mindomain_scalar write:
    min() of p = -0.0010355126 at location (0.0060340464 1.0023271e-06 0.5) in cell 25
    min() of k = 1.9926603e-06 at location (1.9785208 0.94257453 0.5) in cell 13055
    min() of epsilon = 1.4670436e-05 at location (1.9785208 0.94257453 0.5) in cell 13055
    min() of nut = 9.9816285e-12 at location (0.0020059438 1.0023271e-06 0.5) in cell 24

volFieldValue mindomain_vector write:
    minMag() of U = 0.071364824 at location (0.0060340464 1.0023271e-06 0.5) in cell 25

volFieldValue maxdomain_scalar write:
    max() of p = 0.0014662572 at location (-0.0020050773 1.0023271e-06 0.5) in cell 23
    max() of k = 0.00099831205 at location (0.0060340464 7.2269684e-06 0.5) in cell 433
    max() of epsilon = 26.350293 at location (0.014190747 1.0023271e-06 0.5) in cell 27
    max() of nut = 3.0133924e-06 at location (-0.31329649 0.94257453 0.5) in cell 12920

volFieldValue maxdomain_vector write:
    maxMag() of U = 1.0006804 at location (0.0020059438 0.00023491035 0.5) in cell 3696

yPlus yplus_stats write:
    patch bottom y+ : min = 0.59805028, max = 0.61318601, average = 0.59938136

Time = 14s

DILUPBiCGStab:  Solving for Ux, Initial residual = 0.0040881053, Final residual = 2.1813218e-12, No Iterations 3
DILUPBiCGStab:  Solving for Uy, Initial residual = 0.015512788, Final residual = 4.5189727e-09, No Iterations 3
DICPCG:  Solving for p, Initial residual = 0.017442282, Final residual = 0.00017320953, No Iterations 47
DICPCG:  Solving for p, Initial residual = 0.00017210694, Final residual = 1.6306545e-06, No Iterations 81
DICPCG:  Solving for p, Initial residual = 1.6167866e-06, Final residual = 1.5406475e-08, No Iterations 37
time step continuity errors : sum local = 2.3406555e-12, global = -1.3533448e-13, cumulative = 1.1406646e-13
DILUPBiCGStab:  Solving for epsilon, Initial residual = 0.011023616, Final residual = 1.5443745e-16, No Iterations 3
DILUPBiCGStab:  Solving for k, Initial residual = 0.017906006, Final residual = 4.3947756e-13, No Iterations 3
ExecutionTime = 1.222875 s  ClockTime = 1 s



volFieldValue mindomain_scalar write:
    min() of p = -0.0011182516 at location (0.0060340464 1.0023271e-06 0.5) in cell 25
    min() of k = 1.6791778e-06 at location (1.9785208 0.94257453 0.5) in cell 13055
    min() of epsilon = 1.0647647e-05 at location (1.9785208 0.94257453 0.5) in cell 13055
    min() of nut = 8.4155527e-12 at location (0.0020059438 1.0023271e-06 0.5) in cell 24

volFieldValue mindomain_vector write:
    minMag() of U = 0.067792821 at location (0.0060340464 1.0023271e-06 0.5) in cell 25

volFieldValue maxdomain_scalar write:
    max() of p = 0.0015413017 at location (-0.0020050773 1.0023271e-06 0.5) in cell 23
    max() of k = 0.00090439255 at location (0.0060340464 7.2269684e-06 0.5) in cell 433
    max() of epsilon = 21.635897 at location (0.014190747 1.0023271e-06 0.5) in cell 27
    max() of nut = 3.2731663e-06 at location (-0.31329649 0.94257453 0.5) in cell 12920

volFieldValue maxdomain_vector write:
    maxMag() of U = 1.000725 at location (0.0020059438 0.00023491035 0.5) in cell 3696

yPlus yplus_stats write:
    patch bottom y+ : min = 0.58289054, max = 0.59908872, average = 0.58430708

Time = 15s

DILUPBiCGStab:  Solving for Ux, Initial residual = 0.0037439196, Final residual = 2.1501507e-12, No Iterations 3
DILUPBiCGStab:  Solving for Uy, Initial residual = 0.014724529, Final residual = 4.2585786e-09, No Iterations 3
DICPCG:  Solving for p, Initial residual = 0.016736636, Final residual = 0.00016087818, No Iterations 48
DICPCG:  Solving for p, Initial residual = 0.0001597754, Final residual = 1.4122252e-06, No Iterations 83
DICPCG:  Solving for p, Initial residual = 1.3992789e-06, Final residual = 1.1898501e-08, No Iterations 39
time step continuity errors : sum local = 1.8431203e-12, global = -1.1960524e-13, cumulative = -5.5387799e-15
DILUPBiCGStab:  Solving for epsilon, Initial residual = 0.010534681, Final residual = 1.7432496e-16, No Iterations 3
DILUPBiCGStab:  Solving for k, Initial residual = 0.016497744, Final residual = 4.693253e-13, No Iterations 3
ExecutionTime = 1.277391 s  ClockTime = 1 s



volFieldValue mindomain_scalar write:
    min() of p = -0.0011995252 at location (0.0060340464 1.0023271e-06 0.5) in cell 25
    min() of k = 1.4369374e-06 at location (1.9785208 0.94257453 0.5) in cell 13055
    min() of epsilon = 7.9259006e-06 at location (1.9785208 0.94257453 0.5) in cell 13055
    min() of nut = 7.1963914e-12 at location (0.0020059438 1.0023271e-06 0.5) in cell 24

volFieldValue mindomain_vector write:
    minMag() of U = 0.064628421 at location (0.0060340464 1.0023271e-06 0.5) in cell 25

volFieldValue maxdomain_scalar write:
    max() of p = 0.0016166992 at location (-0.0020050773 1.0023271e-06 0.5) in cell 23
    max() of k = 0.00082243085 at location (0.014190747 7.2269684e-06 0.5) in cell 435
    max() of epsilon = 18.002862 at location (0.014190747 1.0023271e-06 0.5) in cell 27
    max() of nut = 3.5335083e-06 at location (-0.31329649 0.94257453 0.5) in cell 12920

volFieldValue maxdomain_vector write:
    maxMag() of U = 1.0007674 at location (0.0020059438 0.00023491035 0.5) in cell 3696

yPlus yplus_stats write:
    patch bottom y+ : min = 0.56912354, max = 0.58637678, average = 0.57061935

Time = 16s

DILUPBiCGStab:  Solving for Ux, Initial residual = 0.0034490149, Final residual = 2.1068884e-12, No Iterations 3
DILUPBiCGStab:  Solving for Uy, Initial residual = 0.014038069, Final residual = 1.185573e-09, No Iterations 3
DICPCG:  Solving for p, Initial residual = 0.015966647, Final residual = 0.00015423244, No Iterations 67
DICPCG:  Solving for p, Initial residual = 0.00015233547, Final residual = 1.3902793e-06, No Iterations 78
DICPCG:  Solving for p, Initial residual = 1.383413e-06, Final residual = 1.3763285e-08, No Iterations 36
time step continuity errors : sum local = 2.1744393e-12, global = -1.7746028e-14, cumulative = -2.3284808e-14
DILUPBiCGStab:  Solving for epsilon, Initial residual = 0.0099796337, Final residual = 1.9459496e-16, No Iterations 3
DILUPBiCGStab:  Solving for k, Initial residual = 0.015242845, Final residual = 4.8833719e-13, No Iterations 3
ExecutionTime = 1.345543 s  ClockTime = 1 s



volFieldValue mindomain_scalar write:
    min() of p = -0.0012794544 at location (0.0060340464 1.0023271e-06 0.5) in cell 25
    min() of k = 1.246365e-06 at location (1.9785208 0.94257453 0.5) in cell 13055
    min() of epsilon = 6.0379319e-06 at location (1.9785208 0.94257453 0.5) in cell 13055
    min() of nut = 6.2372793e-12 at location (0.0020059438 1.0023271e-06 0.5) in cell 24

volFieldValue mindomain_vector write:
    minMag() of U = 0.061798246 at location (0.0060340464 1.0023271e-06 0.5) in cell 25

volFieldValue maxdomain_scalar write:
    max() of p = 0.0016926001 at location (-0.0020050773 1.0023271e-06 0.5) in cell 23
    max() of k = 0.00075248762 at location (0.0060340464 9.4750924e-06 0.5) in cell 569
    max() of epsilon = 15.185457 at location (0.014190747 1.0023271e-06 0.5) in cell 27
    max() of nut = 3.7939206e-06 at location (-0.31329649 0.94257453 0.5) in cell 12920

volFieldValue maxdomain_vector write:
    maxMag() of U = 1.0008078 at location (0.0020059438 0.00023491035 0.5) in cell 3696

yPlus yplus_stats write:
    patch bottom y+ : min = 0.55652223, max = 0.57482517, average = 0.55809162

Time = 17s

DILUPBiCGStab:  Solving for Ux, Initial residual = 0.0031935261, Final residual = 2.0521135e-12, No Iterations 3
DILUPBiCGStab:  Solving for Uy, Initial residual = 0.013421287, Final residual = 8.8907733e-09, No Iterations 3
DICPCG:  Solving for p, Initial residual = 0.01519084, Final residual = 0.00014165811, No Iterations 81
DICPCG:  Solving for p, Initial residual = 0.00013910163, Final residual = 1.3329751e-06, No Iterations 75
DICPCG:  Solving for p, Initial residual = 1.3322586e-06, Final residual = 1.2112697e-08, No Iterations 77
time step continuity errors : sum local = 1.9535045e-12, global = 2.3378093e-14, cumulative = 9.3285078e-17
DILUPBiCGStab:  Solving for epsilon, Initial residual = 0.0093985724, Final residual = 2.15201e-16, No Iterations 3
DILUPBiCGStab:  Solving for k, Initial residual = 0.014133785, Final residual = 4.8783699e-13, No Iterations 3
ExecutionTime = 1.423345 s  ClockTime = 1 s



volFieldValue mindomain_scalar write:
    min() of p = -0.0013581527 at location (0.0060340464 1.0023271e-06 0.5) in cell 25
    min() of k = 1.0939514e-06 at location (1.9785208 0.94257453 0.5) in cell 13055
    min() of epsilon = 4.6969926e-06 at location (1.9785208 0.94257453 0.5) in cell 13055
    min() of nut = 5.4743617e-12 at location (0.0020059438 1.0023271e-06 0.5) in cell 24

volFieldValue mindomain_vector write:
    minMag() of U = 0.059246374 at location (0.0060340464 1.0023271e-06 0.5) in cell 25

volFieldValue maxdomain_scalar write:
    max() of p = 0.0017692479 at location (-0.0020050773 1.0023271e-06 0.5) in cell 23
    max() of k = 0.00070989539 at location (0.0060340464 9.4750924e-06 0.5) in cell 569
    max() of epsilon = 12.982097 at location (0.014190747 1.0023271e-06 0.5) in cell 27
    max() of nut = 4.0539646e-06 at location (-0.31329649 0.94257453 0.5) in cell 12920

volFieldValue maxdomain_vector write:
    maxMag() of U = 1.0008462 at location (0.0020059438 0.00023491035 0.5) in cell 3696

yPlus yplus_stats write:
    patch bottom y+ : min = 0.54491032, max = 0.56425923, average = 0.54654796

Time = 18s

DILUPBiCGStab:  Solving for Ux, Initial residual = 0.0029700967, Final residual = 2.0052176e-12, No Iterations 3
DILUPBiCGStab:  Solving for Uy, Initial residual = 0.012869253, Final residual = 4.1905592e-09, No Iterations 3
DICPCG:  Solving for p, Initial residual = 0.014467568, Final residual = 0.00014074319, No Iterations 81
DICPCG:  Solving for p, Initial residual = 0.00013801006, Final residual = 1.3556621e-06, No Iterations 75
DICPCG:  Solving for p, Initial residual = 1.3549545e-06, Final residual = 1.3404071e-08, No Iterations 77
time step continuity errors : sum local = 2.2084427e-12, global = 5.0583837e-14, cumulative = 5.0677122e-14
DILUPBiCGStab:  Solving for epsilon, Initial residual = 0.0087963093, Final residual = 2.3644719e-16, No Iterations 3
DILUPBiCGStab:  Solving for k, Initial residual = 0.01315544, Final residual = 4.6300188e-13, No Iterations 3
ExecutionTime = 1.527069 s  ClockTime = 1 s



volFieldValue mindomain_scalar write:
    min() of p = -0.0014356696 at location (0.0060340464 1.0023271e-06 0.5) in cell 25
    min() of k = 9.70214e-07 at location (1.9785208 0.94257453 0.5) in cell 13055
    min() of epsilon = 3.7232987e-06 at location (1.9785208 0.94257453 0.5) in cell 13055
    min() of nut = 4.8606868e-12 at location (0.0020059438 1.0023271e-06 0.5) in cell 24

volFieldValue mindomain_vector write:
    minMag() of U = 0.05692933 at location (0.0060340464 1.0023271e-06 0.5) in cell 25

volFieldValue maxdomain_scalar write:
    max() of p = 0.0018467104 at location (-0.0020050773 1.0023271e-06 0.5) in cell 23
    max() of k = 0.00067107576 at location (0.0060340464 9.4750924e-06 0.5) in cell 569
    max() of epsilon = 11.242048 at location (0.014190747 1.0023271e-06 0.5) in cell 27
    max() of nut = 4.3139215e-06 at location (-0.31329649 0.94257453 0.5) in cell 12920

volFieldValue maxdomain_vector write:
    maxMag() of U = 1.0008826 at location (0.0020059438 0.00023491035 0.5) in cell 3696

yPlus yplus_stats write:
    patch bottom y+ : min = 0.53414839, max = 0.55454082, average = 0.5358492

Time = 19s

DILUPBiCGStab:  Solving for Ux, Initial residual = 0.0027729725, Final residual = 1.9826638e-12, No Iterations 3
DILUPBiCGStab:  Solving for Uy, Initial residual = 0.012371811, Final residual = 3.483333e-09, No Iterations 3
DICPCG:  Solving for p, Initial residual = 0.013743749, Final residual = 0.00011408002, No Iterations 82
DICPCG:  Solving for p, Initial residual = 0.0001117112, Final residual = 1.094226e-06, No Iterations 78
DICPCG:  Solving for p, Initial residual = 1.0937906e-06, Final residual = 1.0214911e-08, No Iterations 75
time step continuity errors : sum local = 1.72059e-12, global = -1.063887e-13, cumulative = -5.5711581e-14
DILUPBiCGStab:  Solving for epsilon, Initial residual = 0.0081935752, Final residual = 2.6096875e-16, No Iterations 3
DILUPBiCGStab:  Solving for k, Initial residual = 0.012297936, Final residual = 4.3012271e-13, No Iterations 3
ExecutionTime = 1.631599 s  ClockTime = 1 s



volFieldValue mindomain_scalar write:
    min() of p = -0.0015121422 at location (0.0060340464 1.0023271e-06 0.5) in cell 25
    min() of k = 8.6838848e-07 at location (1.9785208 0.94257453 0.5) in cell 13055
    min() of epsilon = 3.0016706e-06 at location (1.9785208 0.94257453 0.5) in cell 13055
    min() of nut = 4.3616365e-12 at location (0.0020059438 1.0023271e-06 0.5) in cell 24

volFieldValue mindomain_vector write:
    minMag() of U = 0.054812726 at location (0.0060340464 1.0023271e-06 0.5) in cell 25

volFieldValue maxdomain_scalar write:
    max() of p = 0.0019250334 at location (-0.0020050773 1.0023271e-06 0.5) in cell 23
    max() of k = 0.00063618108 at location (0.018321967 9.4750924e-06 0.5) in cell 572
    max() of epsilon = 9.8533838 at location (0.014190747 1.0023271e-06 0.5) in cell 27
    max() of nut = 4.5738386e-06 at location (-0.31329649 0.94257453 0.5) in cell 12920

volFieldValue maxdomain_vector write:
    maxMag() of U = 1.0009171 at location (0.0020059438 0.00023491035 0.5) in cell 3696

yPlus yplus_stats write:
    patch bottom y+ : min = 0.52412438, max = 0.54555889, average = 0.52588347

Time = 20s

DILUPBiCGStab:  Solving for Ux, Initial residual = 0.0025977837, Final residual = 1.9931568e-12, No Iterations 3
DILUPBiCGStab:  Solving for Uy, Initial residual = 0.011923598, Final residual = 3.2365953e-09, No Iterations 3
DICPCG:  Solving for p, Initial residual = 0.013096795, Final residual = 0.00011314594, No Iterations 82
DICPCG:  Solving for p, Initial residual = 0.00011067902, Final residual = 9.6886992e-07, No Iterations 79
DICPCG:  Solving for p, Initial residual = 9.6849088e-07, Final residual = 9.9479124e-09, No Iterations 74
time step continuity errors : sum local = 1.7138921e-12, global = -9.5733283e-14, cumulative = -1.5144486e-13
DILUPBiCGStab:  Solving for epsilon, Initial residual = 0.0076073657, Final residual = 2.8812369e-16, No Iterations 3
DILUPBiCGStab:  Solving for k, Initial residual = 0.011576281, Final residual = 4.0335621e-13, No Iterations 3
ExecutionTime = 1.699513 s  ClockTime = 1 s



volFieldValue mindomain_scalar write:
    min() of p = -0.0015877771 at location (0.0060340464 1.0023271e-06 0.5) in cell 25
    min() of k = 7.8357836e-07 at location (1.9785208 0.94257453 0.5) in cell 13055
    min() of epsilon = 2.4567333e-06 at location (1.9785208 0.94257453 0.5) in cell 13055
    min() of nut = 3.9515657e-12 at location (0.0020059438 1.0023271e-06 0.5) in cell 24

volFieldValue mindomain_vector write:
    minMag() of U = 0.052868954 at location (0.0060340464 1.0023271e-06 0.5) in cell 25

volFieldValue maxdomain_scalar write:
    max() of p = 0.0020042358 at location (-0.0020050773 1.0023271e-06 0.5) in cell 23
    max() of k = 0.00060483664 at location (0.018321967 9.4750924e-06 0.5) in cell 572
    max() of epsilon = 8.7331601 at location (0.014190747 1.0023271e-06 0.5) in cell 27
    max() of nut = 4.8337289e-06 at location (-0.31329649 0.94257453 0.5) in cell 12920

volFieldValue maxdomain_vector write:
    maxMag() of U = 1.0009498 at location (0.0020059438 0.00023491035 0.5) in cell 3696

yPlus yplus_stats write:
    patch bottom y+ : min = 0.51474698, max = 0.53722287, average = 0.51655957

Time = 21s

DILUPBiCGStab:  Solving for Ux, Initial residual = 0.0024411963, Final residual = 2.0477227e-12, No Iterations 3
DILUPBiCGStab:  Solving for Uy, Initial residual = 0.011527811, Final residual = 3.1232392e-09, No Iterations 3
DICPCG:  Solving for p, Initial residual = 0.01252473, Final residual = 0.00011220964, No Iterations 82
DICPCG:  Solving for p, Initial residual = 0.00010966035, Final residual = 9.7750421e-07, No Iterations 79
DICPCG:  Solving for p, Initial residual = 9.7712507e-07, Final residual = 8.9420226e-09, No Iterations 75
time step continuity errors : sum local = 1.5765133e-12, global = -8.1898956e-14, cumulative = -2.3334382e-13
DILUPBiCGStab:  Solving for epsilon, Initial residual = 0.0070492435, Final residual = 3.1479317e-16, No Iterations 3
DILUPBiCGStab:  Solving for k, Initial residual = 0.010942715, Final residual = 4.0194489e-13, No Iterations 3
ExecutionTime = 1.768335 s  ClockTime = 1 s



volFieldValue mindomain_scalar write:
    min() of p = -0.0016625026 at location (0.0060340464 1.0023271e-06 0.5) in cell 25
    min() of k = 7.1219624e-07 at location (1.9785208 0.94257453 0.5) in cell 13055
    min() of epsilon = 2.0381399e-06 at location (1.9785208 0.94257453 0.5) in cell 13055
    min() of nut = 3.6113302e-12 at location (0.0020059438 1.0023271e-06 0.5) in cell 24

volFieldValue mindomain_vector write:
    minMag() of U = 0.051075548 at location (0.0060340464 1.0023271e-06 0.5) in cell 25

volFieldValue maxdomain_scalar write:
    max() of p = 0.0020844048 at location (-0.0020050773 1.0023271e-06 0.5) in cell 23
    max() of k = 0.00057673508 at location (0.018321967 9.4750924e-06 0.5) in cell 572
    max() of epsilon = 7.8198093 at location (0.014190747 1.0023271e-06 0.5) in cell 27
    max() of nut = 5.0935992e-06 at location (-0.31329649 0.94257453 0.5) in cell 12920

volFieldValue maxdomain_vector write:
    maxMag() of U = 1.0009805 at location (0.0020059438 0.00023491035 0.5) in cell 3696

yPlus yplus_stats write:
    patch bottom y+ : min = 0.50594088, max = 0.52945802, average = 0.50780225

Time = 22s

DILUPBiCGStab:  Solving for Ux, Initial residual = 0.0023003085, Final residual = 2.1227753e-12, No Iterations 3
DILUPBiCGStab:  Solving for Uy, Initial residual = 0.011170605, Final residual = 3.0517094e-09, No Iterations 3
DICPCG:  Solving for p, Initial residual = 0.011993461, Final residual = 0.00011145803, No Iterations 82
DICPCG:  Solving for p, Initial residual = 0.00010884359, Final residual = 9.7597225e-07, No Iterations 79
DICPCG:  Solving for p, Initial residual = 9.7559463e-07, Final residual = 9.19566e-09, No Iterations 75
time step continuity errors : sum local = 1.6596902e-12, global = -9.9636429e-14, cumulative = -3.3298025e-13
DILUPBiCGStab:  Solving for epsilon, Initial residual = 0.0065390989, Final residual = 3.3964412e-16, No Iterations 3
DILUPBiCGStab:  Solving for k, Initial residual = 0.010383299, Final residual = 4.3048128e-13, No Iterations 3
ExecutionTime = 1.835427 s  ClockTime = 2 s



volFieldValue mindomain_scalar write:
    min() of p = -0.0017363078 at location (0.0060340464 1.0023271e-06 0.5) in cell 25
    min() of k = 6.5159338e-07 at location (1.9785208 0.94257453 0.5) in cell 13055
    min() of epsilon = 1.7116063e-06 at location (1.9785208 0.94257453 0.5) in cell 13055
    min() of nut = 3.3205913e-12 at location (0.0060340464 1.0023271e-06 0.5) in cell 25

volFieldValue mindomain_vector write:
    minMag() of U = 0.049414016 at location (0.0060340464 1.0023271e-06 0.5) in cell 25

volFieldValue maxdomain_scalar write:
    max() of p = 0.0021653698 at location (-0.0020050773 1.0023271e-06 0.5) in cell 23
    max() of k = 0.00055159856 at location (0.018321967 9.4750924e-06 0.5) in cell 572
    max() of epsilon = 7.0674383 at location (0.014190747 1.0023271e-06 0.5) in cell 27
    max() of nut = 5.3534542e-06 at location (-0.31329649 0.94257453 0.5) in cell 12920

volFieldValue maxdomain_vector write:
    maxMag() of U = 1.0010127 at location (0.0020059438 0.00026546084 0.5) in cell 3832

yPlus yplus_stats write:
    patch bottom y+ : min = 0.4976433, max = 0.52220196, average = 0.4995487

Time = 23s

DILUPBiCGStab:  Solving for Ux, Initial residual = 0.0021729103, Final residual = 2.2087627e-12, No Iterations 3
DILUPBiCGStab:  Solving for Uy, Initial residual = 0.010840804, Final residual = 2.9876262e-09, No Iterations 3
DICPCG:  Solving for p, Initial residual = 0.011529066, Final residual = 0.00011081645, No Iterations 82
DICPCG:  Solving for p, Initial residual = 0.00010815323, Final residual = 9.8708235e-07, No Iterations 79
DICPCG:  Solving for p, Initial residual = 9.8670541e-07, Final residual = 9.5098107e-09, No Iterations 75
time step continuity errors : sum local = 1.75704e-12, global = -1.1093895e-13, cumulative = -4.439192e-13
DILUPBiCGStab:  Solving for epsilon, Initial residual = 0.006062081, Final residual = 3.6141626e-16, No Iterations 3
DILUPBiCGStab:  Solving for k, Initial residual = 0.009889276, Final residual = 4.351443e-13, No Iterations 3
ExecutionTime = 1.908165 s  ClockTime = 2 s



volFieldValue mindomain_scalar write:
    min() of p = -0.0018092286 at location (0.0060340464 1.0023271e-06 0.5) in cell 25
    min() of k = 5.9981225e-07 at location (1.9785208 0.94257453 0.5) in cell 13055
    min() of epsilon = 1.4533688e-06 at location (1.9785208 0.94257453 0.5) in cell 13055
    min() of nut = 3.0719915e-12 at location (0.0060340464 1.0023271e-06 0.5) in cell 25

volFieldValue mindomain_vector write:
    minMag() of U = 0.047868971 at location (0.0060340464 1.0023271e-06 0.5) in cell 25

volFieldValue maxdomain_scalar write:
    max() of p = 0.0022469213 at location (-0.0020050773 1.0023271e-06 0.5) in cell 23
    max() of k = 0.00052914769 at location (0.018321967 9.4750924e-06 0.5) in cell 572
    max() of epsilon = 6.441628 at location (0.014190747 1.0023271e-06 0.5) in cell 27
    max() of nut = 5.6132969e-06 at location (-0.31329649 0.94257453 0.5) in cell 12920

volFieldValue maxdomain_vector write:
    maxMag() of U = 1.0010461 at location (0.0020059438 0.00026546084 0.5) in cell 3832

yPlus yplus_stats write:
    patch bottom y+ : min = 0.48980134, max = 0.51540212, average = 0.49174599

Time = 24s

DILUPBiCGStab:  Solving for Ux, Initial residual = 0.0020572479, Final residual = 2.3031022e-12, No Iterations 3
DILUPBiCGStab:  Solving for Uy, Initial residual = 0.010534764, Final residual = 2.923658e-09, No Iterations 3
DICPCG:  Solving for p, Initial residual = 0.01109222, Final residual = 0.00011032555, No Iterations 82
DICPCG:  Solving for p, Initial residual = 0.0001076231, Final residual = 9.8654963e-07, No Iterations 79
DICPCG:  Solving for p, Initial residual = 9.8617816e-07, Final residual = 9.8498519e-09, No Iterations 75
time step continuity errors : sum local = 1.8635371e-12, global = -1.193531e-13, cumulative = -5.632723e-13
DILUPBiCGStab:  Solving for epsilon, Initial residual = 0.0056188049, Final residual = 3.8105424e-16, No Iterations 3
DILUPBiCGStab:  Solving for k, Initial residual = 0.0094494875, Final residual = 4.2321676e-13, No Iterations 3
ExecutionTime = 1.969806 s  ClockTime = 2 s



volFieldValue mindomain_scalar write:
    min() of p = -0.0018810157 at location (0.0060340464 1.0023271e-06 0.5) in cell 25
    min() of k = 5.5541975e-07 at location (1.9785208 0.94257453 0.5) in cell 13055
    min() of epsilon = 1.2466937e-06 at location (1.9785208 0.94257453 0.5) in cell 13055
    min() of nut = 2.8598011e-12 at location (0.0060340464 1.0023271e-06 0.5) in cell 25

volFieldValue mindomain_vector write:
    minMag() of U = 0.046427492 at location (0.0060340464 1.0023271e-06 0.5) in cell 25

volFieldValue maxdomain_scalar write:
    max() of p = 0.0023288527 at location (-0.0020050773 1.0023271e-06 0.5) in cell 23
    max() of k = 0.00051637754 at location (0.022490245 1.1864417e-05 0.5) in cell 709
    max() of epsilon = 5.9163705 at location (0.014190747 1.0023271e-06 0.5) in cell 27
    max() of nut = 5.87313e-06 at location (-0.31329649 0.94257453 0.5) in cell 12920

volFieldValue maxdomain_vector write:
    maxMag() of U = 1.0010777 at location (0.0020059438 0.00026546084 0.5) in cell 3832

yPlus yplus_stats write:
    patch bottom y+ : min = 0.48237012, max = 0.5090138, average = 0.48434916

Time = 25s

DILUPBiCGStab:  Solving for Ux, Initial residual = 0.0019517358, Final residual = 2.4022275e-12, No Iterations 3
DILUPBiCGStab:  Solving for Uy, Initial residual = 0.010251496, Final residual = 2.8580989e-09, No Iterations 3
DICPCG:  Solving for p, Initial residual = 0.01066438, Final residual = 8.8314253e-05, No Iterations 83
DICPCG:  Solving for p, Initial residual = 8.6114325e-05, Final residual = 8.5471133e-07, No Iterations 79
DICPCG:  Solving for p, Initial residual = 8.5444768e-07, Final residual = 9.4088124e-09, No Iterations 76
time step continuity errors : sum local = 1.8229405e-12, global = -1.1338716e-13, cumulative = -6.7665947e-13
DILUPBiCGStab:  Solving for epsilon, Initial residual = 0.0052080496, Final residual = 4.0022413e-16, No Iterations 3
DILUPBiCGStab:  Solving for k, Initial residual = 0.0090572991, Final residual = 4.0372731e-13, No Iterations 3
ExecutionTime = 2.036443 s  ClockTime = 2 s



volFieldValue mindomain_scalar write:
    min() of p = -0.001951458 at location (0.0060340464 1.0023271e-06 0.5) in cell 25
    min() of k = 5.1739302e-07 at location (1.9785208 0.94257453 0.5) in cell 13055
    min() of epsilon = 1.0796383e-06 at location (1.9785208 0.94257453 0.5) in cell 13055
    min() of nut = 2.6774827e-12 at location (0.0060340464 1.0023271e-06 0.5) in cell 25

volFieldValue mindomain_vector write:
    minMag() of U = 0.045078638 at location (0.0060340464 1.0023271e-06 0.5) in cell 25

volFieldValue maxdomain_scalar write:
    max() of p = 0.0024110286 at location (-0.0020050773 1.0023271e-06 0.5) in cell 23
    max() of k = 0.0005056402 at location (0.022490245 1.1864417e-05 0.5) in cell 709
    max() of epsilon = 5.4755657 at location (0.0020059438 1.0023271e-06 0.5) in cell 24
    max() of nut = 6.1329552e-06 at location (-0.31329649 0.94257453 0.5) in cell 12920

volFieldValue maxdomain_vector write:
    maxMag() of U = 1.0011076 at location (0.0020059438 0.00026546084 0.5) in cell 3832

yPlus yplus_stats write:
    patch bottom y+ : min = 0.47531119, max = 0.50299863, average = 0.47731965

Time = 26s

DILUPBiCGStab:  Solving for Ux, Initial residual = 0.0018551224, Final residual = 2.5077963e-12, No Iterations 3
DILUPBiCGStab:  Solving for Uy, Initial residual = 0.0099931883, Final residual = 2.8014702e-09, No Iterations 3
DICPCG:  Solving for p, Initial residual = 0.010246858, Final residual = 8.8071912e-05, No Iterations 83
DICPCG:  Solving for p, Initial residual = 8.5836043e-05, Final residual = 7.4346913e-07, No Iterations 80
DICPCG:  Solving for p, Initial residual = 7.43243e-07, Final residual = 9.2992148e-09, No Iterations 75
time step continuity errors : sum local = 1.8453963e-12, global = -9.6204995e-14, cumulative = -7.7286446e-13
DILUPBiCGStab:  Solving for epsilon, Initial residual = 0.0048290637, Final residual = 4.20007e-16, No Iterations 3
DILUPBiCGStab:  Solving for k, Initial residual = 0.0087077008, Final residual = 3.8032021e-13, No Iterations 3
ExecutionTime = 2.101825 s  ClockTime = 2 s



volFieldValue mindomain_scalar write:
    min() of p = -0.0020203493 at location (0.0060340464 1.0023271e-06 0.5) in cell 25
    min() of k = 4.8503799e-07 at location (1.9785208 0.94257453 0.5) in cell 13055
    min() of epsilon = 9.4358654e-07 at location (1.9785208 0.94257453 0.5) in cell 13055
    min() of nut = 2.5199136e-12 at location (0.0060340464 1.0023271e-06 0.5) in cell 25

volFieldValue mindomain_vector write:
    minMag() of U = 0.043813068 at location (0.0060340464 1.0023271e-06 0.5) in cell 25

volFieldValue maxdomain_scalar write:
    max() of p = 0.0024936495 at location (-0.0020050773 1.0023271e-06 0.5) in cell 23
    max() of k = 0.00049600821 at location (0.022490245 1.1864417e-05 0.5) in cell 709
    max() of epsilon = 5.1102885 at location (0.0020059438 1.0023271e-06 0.5) in cell 24
    max() of nut = 6.3927738e-06 at location (-0.31329649 0.94257453 0.5) in cell 12920

volFieldValue maxdomain_vector write:
    maxMag() of U = 1.001136 at location (0.0020059438 0.00026546084 0.5) in cell 3832

yPlus yplus_stats write:
    patch bottom y+ : min = 0.46859145, max = 0.4973235, average = 0.47062421

Time = 27s

DILUPBiCGStab:  Solving for Ux, Initial residual = 0.0017663581, Final residual = 2.6213253e-12, No Iterations 3
DILUPBiCGStab:  Solving for Uy, Initial residual = 0.0097553215, Final residual = 2.7641426e-09, No Iterations 3
DICPCG:  Solving for p, Initial residual = 0.0098839896, Final residual = 8.761112e-05, No Iterations 83
DICPCG:  Solving for p, Initial residual = 8.5359089e-05, Final residual = 7.4402243e-07, No Iterations 80
DICPCG:  Solving for p, Initial residual = 7.438003e-07, Final residual = 9.3593571e-09, No Iterations 75
time step continuity errors : sum local = 1.9020034e-12, global = -9.5438597e-14, cumulative = -8.6830306e-13
DILUPBiCGStab:  Solving for epsilon, Initial residual = 0.0044801748, Final residual = 4.4060416e-16, No Iterations 3
DILUPBiCGStab:  Solving for k, Initial residual = 0.0083931097, Final residual = 3.5529581e-13, No Iterations 3
ExecutionTime = 2.170454 s  ClockTime = 2 s



volFieldValue mindomain_scalar write:
    min() of p = -0.0020873496 at location (0.0060340464 1.0023271e-06 0.5) in cell 25
    min() of k = 4.5792638e-07 at location (1.9785208 0.94257453 0.5) in cell 13055
    min() of epsilon = 8.3227074e-07 at location (1.9785208 0.94257453 0.5) in cell 13055
    min() of nut = 2.3830421e-12 at location (0.0060340464 1.0023271e-06 0.5) in cell 25

volFieldValue mindomain_vector write:
    minMag() of U = 0.042622757 at location (0.0060340464 1.0023271e-06 0.5) in cell 25

volFieldValue maxdomain_scalar write:
    max() of p = 0.0025765904 at location (-0.0020050773 1.0023271e-06 0.5) in cell 23
    max() of k = 0.00048742749 at location (0.022490245 1.1864417e-05 0.5) in cell 709
    max() of epsilon = 4.7984501 at location (0.0020059438 1.0023271e-06 0.5) in cell 24
    max() of nut = 6.6525869e-06 at location (-0.31329649 0.94257453 0.5) in cell 12920

volFieldValue maxdomain_vector write:
    maxMag() of U = 1.0011632 at location (0.0020059438 0.00026546084 0.5) in cell 3832

yPlus yplus_stats write:
    patch bottom y+ : min = 0.46218216, max = 0.49195958, average = 0.46423396

Time = 28s

DILUPBiCGStab:  Solving for Ux, Initial residual = 0.0016845723, Final residual = 2.7423069e-12, No Iterations 3
DILUPBiCGStab:  Solving for Uy, Initial residual = 0.0095328521, Final residual = 2.7291203e-09, No Iterations 3
DICPCG:  Solving for p, Initial residual = 0.009506408, Final residual = 8.6709972e-05, No Iterations 83
DICPCG:  Solving for p, Initial residual = 8.4458136e-05, Final residual = 7.2928954e-07, No Iterations 80
DICPCG:  Solving for p, Initial residual = 7.290772e-07, Final residual = 9.2141846e-09, No Iterations 75
time step continuity errors : sum local = 1.9177686e-12, global = -9.6500804e-14, cumulative = -9.6480386e-13
DILUPBiCGStab:  Solving for epsilon, Initial residual = 0.0041589851, Final residual = 4.6162141e-16, No Iterations 3
DILUPBiCGStab:  Solving for k, Initial residual = 0.0081106554, Final residual = 3.3434016e-13, No Iterations 3
ExecutionTime = 2.252712 s  ClockTime = 2 s



volFieldValue mindomain_scalar write:
    min() of p = -0.0021521465 at location (0.0060340464 1.0023271e-06 0.5) in cell 25
    min() of k = 4.3584096e-07 at location (1.9785208 0.94257453 0.5) in cell 13055
    min() of epsilon = 7.411018e-07 at location (1.9785208 0.94257453 0.5) in cell 13055
    min() of nut = 2.263634e-12 at location (0.0060340464 1.0023271e-06 0.5) in cell 25

volFieldValue mindomain_vector write:
    minMag() of U = 0.041500762 at location (0.0060340464 1.0023271e-06 0.5) in cell 25

volFieldValue maxdomain_scalar write:
    max() of p = 0.0026593919 at location (-0.0020050773 1.0023271e-06 0.5) in cell 23
    max() of k = 0.00047984139 at location (0.02669699 1.1864417e-05 0.5) in cell 710
    max() of epsilon = 4.5308905 at location (0.0020059438 1.0023271e-06 0.5) in cell 24
    max() of nut = 6.9123952e-06 at location (-0.31329649 0.94257453 0.5) in cell 12920

volFieldValue maxdomain_vector write:
    maxMag() of U = 1.0011887 at location (0.0020059438 0.00026546084 0.5) in cell 3832

yPlus yplus_stats write:
    patch bottom y+ : min = 0.45605827, max = 0.48688165, average = 0.45812364

Time = 29s

DILUPBiCGStab:  Solving for Ux, Initial residual = 0.0016089576, Final residual = 2.8681535e-12, No Iterations 3
DILUPBiCGStab:  Solving for Uy, Initial residual = 0.0093217876, Final residual = 2.6831313e-09, No Iterations 3
DICPCG:  Solving for p, Initial residual = 0.0091301619, Final residual = 8.5499301e-05, No Iterations 83
DICPCG:  Solving for p, Initial residual = 8.3263271e-05, Final residual = 7.1323181e-07, No Iterations 80
DICPCG:  Solving for p, Initial residual = 7.1303018e-07, Final residual = 9.0862595e-09, No Iterations 75
time step continuity errors : sum local = 1.9365009e-12, global = -1.0099344e-13, cumulative = -1.0657973e-12
DILUPBiCGStab:  Solving for epsilon, Initial residual = 0.0038637292, Final residual = 4.8336938e-16, No Iterations 3
DILUPBiCGStab:  Solving for k, Initial residual = 0.0078551378, Final residual = 3.2191639e-13, No Iterations 3
ExecutionTime = 2.329529 s  ClockTime = 2 s



volFieldValue mindomain_scalar write:
    min() of p = -0.0022146752 at location (0.0060340464 1.0023271e-06 0.5) in cell 25
    min() of k = 4.1872177e-07 at location (1.9785208 0.94257453 0.5) in cell 13055
    min() of epsilon = 6.6669685e-07 at location (1.9785208 0.94257453 0.5) in cell 13055
    min() of nut = 2.1590858e-12 at location (0.0060340464 1.0023271e-06 0.5) in cell 25

volFieldValue mindomain_vector write:
    minMag() of U = 0.040441042 at location (0.0060340464 1.0023271e-06 0.5) in cell 25

volFieldValue maxdomain_scalar write:
    max() of p = 0.0027418532 at location (-0.0020050773 1.0023271e-06 0.5) in cell 23
    max() of k = 0.00047319308 at location (0.02669699 1.1864417e-05 0.5) in cell 710
    max() of epsilon = 4.3003697 at location (0.0020059438 1.0023271e-06 0.5) in cell 24
    max() of nut = 7.1721993e-06 at location (-0.31329649 0.94257453 0.5) in cell 12920

volFieldValue maxdomain_vector write:
    maxMag() of U = 1.0012126 at location (0.0020059438 0.00026546084 0.5) in cell 3832

yPlus yplus_stats write:
    patch bottom y+ : min = 0.45019781, max = 0.48206748, average = 0.45227109

Time = 30s

DILUPBiCGStab:  Solving for Ux, Initial residual = 0.0015388379, Final residual = 3.0005084e-12, No Iterations 3
DILUPBiCGStab:  Solving for Uy, Initial residual = 0.009121187, Final residual = 2.6404701e-09, No Iterations 3
DICPCG:  Solving for p, Initial residual = 0.0087440374, Final residual = 8.460701e-05, No Iterations 83
DICPCG:  Solving for p, Initial residual = 8.2384428e-05, Final residual = 7.0313565e-07, No Iterations 80
DICPCG:  Solving for p, Initial residual = 7.0294096e-07, Final residual = 9.8926112e-09, No Iterations 74
time step continuity errors : sum local = 2.1587135e-12, global = -1.6640959e-13, cumulative = -1.2322069e-12
DILUPBiCGStab:  Solving for epsilon, Initial residual = 0.0035925346, Final residual = 5.0646434e-16, No Iterations 3
DILUPBiCGStab:  Solving for k, Initial residual = 0.0076239709, Final residual = 3.1363311e-13, No Iterations 3
ExecutionTime = 2.396374 s  ClockTime = 2 s



volFieldValue mindomain_scalar write:
    min() of p = -0.0022746816 at location (0.0060340464 1.0023271e-06 0.5) in cell 25
    min() of k = 4.0660965e-07 at location (1.9785208 0.94257453 0.5) in cell 13055
    min() of epsilon = 6.0653477e-07 at location (1.9785208 0.94257453 0.5) in cell 13055
    min() of nut = 2.0672841e-12 at location (0.0060340464 1.0023271e-06 0.5) in cell 25

volFieldValue mindomain_vector write:
    minMag() of U = 0.039438316 at location (0.0060340464 1.0023271e-06 0.5) in cell 25

volFieldValue maxdomain_scalar write:
    max() of p = 0.0028240453 at location (-0.0020050773 1.0023271e-06 0.5) in cell 23
    max() of k = 0.00046742775 at location (0.02669699 1.1864417e-05 0.5) in cell 710
    max() of epsilon = 4.1011135 at location (0.0020059438 1.0023271e-06 0.5) in cell 24
    max() of nut = 7.4319997e-06 at location (-0.31329649 0.94257453 0.5) in cell 12920

volFieldValue maxdomain_vector write:
    maxMag() of U = 1.0012357 at location (0.0020059438 0.0002999673 0.5) in cell 3968

yPlus yplus_stats write:
    patch bottom y+ : min = 0.44458141, max = 0.47749743, average = 0.44665673

Time = 31s

DILUPBiCGStab:  Solving for Ux, Initial residual = 0.0014737152, Final residual = 3.141795e-12, No Iterations 3
DILUPBiCGStab:  Solving for Uy, Initial residual = 0.0089342213, Final residual = 2.5972765e-09, No Iterations 3
DICPCG:  Solving for p, Initial residual = 0.008385518, Final residual = 8.3468222e-05, No Iterations 83
DICPCG:  Solving for p, Initial residual = 8.1263471e-05, Final residual = 6.8956532e-07, No Iterations 80
DICPCG:  Solving for p, Initial residual = 6.8937878e-07, Final residual = 9.7296246e-09, No Iterations 74
time step continuity errors : sum local = 2.1732664e-12, global = -1.7362708e-13, cumulative = -1.405834e-12
DILUPBiCGStab:  Solving for epsilon, Initial residual = 0.003343327, Final residual = 5.304913e-16, No Iterations 3
DILUPBiCGStab:  Solving for k, Initial residual = 0.0074346897, Final residual = 3.0727019e-13, No Iterations 3
ExecutionTime = 2.460834 s  ClockTime = 2 s



volFieldValue mindomain_scalar write:
    min() of p = -0.0023321303 at location (0.0060340464 1.0023271e-06 0.5) in cell 25
    min() of k = 3.9958639e-07 at location (1.9785208 0.94257453 0.5) in cell 13055
    min() of epsilon = 5.5869662e-07 at location (1.9785208 0.94257453 0.5) in cell 13055
    min() of nut = 1.9865005e-12 at location (0.0060340464 1.0023271e-06 0.5) in cell 25

volFieldValue mindomain_vector write:
    minMag() of U = 0.038487938 at location (0.0060340464 1.0023271e-06 0.5) in cell 25

volFieldValue maxdomain_scalar write:
    max() of p = 0.002906008 at location (-0.0020050773 1.0023271e-06 0.5) in cell 23
    max() of k = 0.00046546673 at location (0.0060340464 1.4430548e-05 0.5) in cell 841
    max() of epsilon = 3.9284788 at location (0.0020059438 1.0023271e-06 0.5) in cell 24
    max() of nut = 7.6917967e-06 at location (-0.31329649 0.94257453 0.5) in cell 12920

volFieldValue maxdomain_vector write:
    maxMag() of U = 1.0012614 at location (0.0020059438 0.0002999673 0.5) in cell 3968

yPlus yplus_stats write:
    patch bottom y+ : min = 0.43919193, max = 0.47315406, average = 0.44126319

Time = 32s

DILUPBiCGStab:  Solving for Ux, Initial residual = 0.0014130623, Final residual = 3.2926699e-12, No Iterations 3
DILUPBiCGStab:  Solving for Uy, Initial residual = 0.0087612563, Final residual = 2.5470446e-09, No Iterations 3
DICPCG:  Solving for p, Initial residual = 0.0080810616, Final residual = 7.584068e-05, No Iterations 84
DICPCG:  Solving for p, Initial residual = 7.3823975e-05, Final residual = 6.8478165e-07, No Iterations 79
DICPCG:  Solving for p, Initial residual = 6.8463086e-07, Final residual = 8.6684739e-09, No Iterations 76
time step continuity errors : sum local = 1.9815756e-12, global = -5.0738528e-14, cumulative = -1.4565725e-12
DILUPBiCGStab:  Solving for epsilon, Initial residual = 0.0031141451, Final residual = 5.5478357e-16, No Iterations 3
DILUPBiCGStab:  Solving for k, Initial residual = 0.0072653114, Final residual = 3.0205762e-13, No Iterations 3
ExecutionTime = 2.5331 s  ClockTime = 2 s



volFieldValue mindomain_scalar write:
    min() of p = -0.0023869797 at location (0.0060340464 1.0023271e-06 0.5) in cell 25
    min() of k = 3.9771418e-07 at location (1.9785208 0.94257453 0.5) in cell 13055
    min() of epsilon = 5.2166586e-07 at location (1.9785208 0.94257453 0.5) in cell 13055
    min() of nut = 1.9153116e-12 at location (0.0060340464 1.0023271e-06 0.5) in cell 25

volFieldValue mindomain_vector write:
    minMag() of U = 0.037585804 at location (0.0060340464 1.0023271e-06 0.5) in cell 25

volFieldValue maxdomain_scalar write:
    max() of p = 0.0029876057 at location (-0.0020050773 1.0023271e-06 0.5) in cell 23
    max() of k = 0.00046634057 at location (0.0060340464 1.4430548e-05 0.5) in cell 841
    max() of epsilon = 3.7787043 at location (0.0020059438 1.0023271e-06 0.5) in cell 24
    max() of nut = 7.9515905e-06 at location (-0.31329649 0.94257453 0.5) in cell 12920

volFieldValue maxdomain_vector write:
    maxMag() of U = 1.0012849 at location (0.0020059438 0.0002999673 0.5) in cell 3968

yPlus yplus_stats write:
    patch bottom y+ : min = 0.43401413, max = 0.46902179, average = 0.43607501

Time = 33s

DILUPBiCGStab:  Solving for Ux, Initial residual = 0.0013564411, Final residual = 3.4519139e-12, No Iterations 3
DILUPBiCGStab:  Solving for Uy, Initial residual = 0.0085988875, Final residual = 2.4937283e-09, No Iterations 3
DICPCG:  Solving for p, Initial residual = 0.0077904537, Final residual = 7.4918253e-05, No Iterations 84
DICPCG:  Solving for p, Initial residual = 7.2916052e-05, Final residual = 6.6898072e-07, No Iterations 79
DICPCG:  Solving for p, Initial residual = 6.6883817e-07, Final residual = 8.5413978e-09, No Iterations 76
time step continuity errors : sum local = 1.9982452e-12, global = -5.648091e-14, cumulative = -1.5130534e-12
DILUPBiCGStab:  Solving for epsilon, Initial residual = 0.0029035135, Final residual = 5.7925679e-16, No Iterations 3
DILUPBiCGStab:  Solving for k, Initial residual = 0.0071117098, Final residual = 2.9739964e-13, No Iterations 3
ExecutionTime = 2.599958 s  ClockTime = 2 s



volFieldValue mindomain_scalar write:
    min() of p = -0.0024391944 at location (0.0060340464 1.0023271e-06 0.5) in cell 25
    min() of k = 4.0097922e-07 at location (1.9785208 0.94257453 0.5) in cell 13055
    min() of epsilon = 4.9417448e-07 at location (1.9785208 0.94257453 0.5) in cell 13055
    min() of nut = 1.8525374e-12 at location (0.0060340464 1.0023271e-06 0.5) in cell 25

volFieldValue mindomain_vector write:
    minMag() of U = 0.036728269 at location (0.0060340464 1.0023271e-06 0.5) in cell 25

volFieldValue maxdomain_scalar write:
    max() of p = 0.0030687739 at location (-0.0020050773 1.0023271e-06 0.5) in cell 23
    max() of k = 0.00046776727 at location (0.0060340464 1.4430548e-05 0.5) in cell 841
    max() of epsilon = 3.6487224 at location (0.0020059438 1.0023271e-06 0.5) in cell 24
    max() of nut = 8.2113814e-06 at location (-0.31329649 0.94257453 0.5) in cell 12920

volFieldValue maxdomain_vector write:
    maxMag() of U = 1.0013066 at location (0.0020059438 0.0002999673 0.5) in cell 3968

yPlus yplus_stats write:
    patch bottom y+ : min = 0.42903438, max = 0.46508668, average = 0.43107836

Time = 34s

DILUPBiCGStab:  Solving for Ux, Initial residual = 0.0013034722, Final residual = 3.6182196e-12, No Iterations 3
DILUPBiCGStab:  Solving for Uy, Initial residual = 0.0084459369, Final residual = 2.4380426e-09, No Iterations 3
DICPCG:  Solving for p, Initial residual = 0.0075004525, Final residual = 7.3638205e-05, No Iterations 84
DICPCG:  Solving for p, Initial residual = 7.1662349e-05, Final residual = 6.5768696e-07, No Iterations 79
DICPCG:  Solving for p, Initial residual = 6.5755097e-07, Final residual = 8.5067799e-09, No Iterations 76
time step continuity errors : sum local = 2.0359292e-12, global = -5.7527188e-14, cumulative = -1.5705806e-12
DILUPBiCGStab:  Solving for epsilon, Initial residual = 0.0027098508, Final residual = 6.0289629e-16, No Iterations 3
DILUPBiCGStab:  Solving for k, Initial residual = 0.0069710971, Final residual = 2.9280292e-13, No Iterations 3
ExecutionTime = 2.660627 s  ClockTime = 2 s



volFieldValue mindomain_scalar write:
    min() of p = -0.0024888025 at location (0.0060340464 1.0023271e-06 0.5) in cell 25
    min() of k = 4.0924607e-07 at location (1.9785208 0.94257453 0.5) in cell 13055
    min() of epsilon = 4.7508893e-07 at location (1.9785208 0.94257453 0.5) in cell 13055
    min() of nut = 1.7971948e-12 at location (0.0060340464 1.0023271e-06 0.5) in cell 25

volFieldValue mindomain_vector write:
    minMag() of U = 0.035912083 at location (0.0060340464 1.0023271e-06 0.5) in cell 25

volFieldValue maxdomain_scalar write:
    max() of p = 0.0031495611 at location (-0.0020050773 1.0023271e-06 0.5) in cell 23
    max() of k = 0.00047014864 at location (0.0020059438 1.4430548e-05 0.5) in cell 840
    max() of epsilon = 3.5360141 at location (0.0020059438 1.0023271e-06 0.5) in cell 24
    max() of nut = 8.4711696e-06 at location (-0.31329649 0.94257453 0.5) in cell 12920

volFieldValue maxdomain_vector write:
    maxMag() of U = 1.0013267 at location (0.0020059438 0.0002999673 0.5) in cell 3968

yPlus yplus_stats write:
    patch bottom y+ : min = 0.42424047, max = 0.46133622, average = 0.42626084

Time = 35s

DILUPBiCGStab:  Solving for Ux, Initial residual = 0.0012538615, Final residual = 3.7944069e-12, No Iterations 3
DILUPBiCGStab:  Solving for Uy, Initial residual = 0.0083026173, Final residual = 2.3869072e-09, No Iterations 3
DICPCG:  Solving for p, Initial residual = 0.0071910082, Final residual = 6.0984465e-05, No Iterations 88
DICPCG:  Solving for p, Initial residual = 5.9332521e-05, Final residual = 5.8618231e-07, No Iterations 47
DICPCG:  Solving for p, Initial residual = 5.8615832e-07, Final residual = 8.8655767e-09, No Iterations 71
time step continuity errors : sum local = 2.1703114e-12, global = 1.5247051e-14, cumulative = -1.5553335e-12
DILUPBiCGStab:  Solving for epsilon, Initial residual = 0.0025316033, Final residual = 6.2426137e-16, No Iterations 3
DILUPBiCGStab:  Solving for k, Initial residual = 0.0068417658, Final residual = 2.8795797e-13, No Iterations 3
ExecutionTime = 2.724373 s  ClockTime = 2 s



volFieldValue mindomain_scalar write:
    min() of p = -0.0025357716 at location (0.0060340464 1.0023271e-06 0.5) in cell 25
    min() of k = 4.2222845e-07 at location (1.9785208 0.94257453 0.5) in cell 13055
    min() of epsilon = 4.6333276e-07 at location (1.9785208 0.94257453 0.5) in cell 13055
    min() of nut = 1.7484599e-12 at location (0.0060340464 1.0023271e-06 0.5) in cell 25

volFieldValue mindomain_vector write:
    minMag() of U = 0.035134337 at location (0.0060340464 1.0023271e-06 0.5) in cell 25

volFieldValue maxdomain_scalar write:
    max() of p = 0.0032297847 at location (-0.0020050773 1.0023271e-06 0.5) in cell 23
    max() of k = 0.00047458067 at location (0.0020059438 1.4430548e-05 0.5) in cell 840
    max() of epsilon = 3.4384989 at location (0.0020059438 1.0023271e-06 0.5) in cell 24
    max() of nut = 8.7309551e-06 at location (-0.31329649 0.94257453 0.5) in cell 12920

volFieldValue maxdomain_vector write:
    maxMag() of U = 1.0013452 at location (0.0020059438 0.0002999673 0.5) in cell 3968

yPlus yplus_stats write:
    patch bottom y+ : min = 0.41962138, max = 0.45775913, average = 0.42161127

Time = 36s

DILUPBiCGStab:  Solving for Ux, Initial residual = 0.0012072924, Final residual = 3.9749293e-12, No Iterations 3
DILUPBiCGStab:  Solving for Uy, Initial residual = 0.0081695687, Final residual = 2.337474e-09, No Iterations 3
DICPCG:  Solving for p, Initial residual = 0.0069609912, Final residual = 6.0845679e-05, No Iterations 88
DICPCG:  Solving for p, Initial residual = 5.9190054e-05, Final residual = 5.7331456e-07, No Iterations 47
DICPCG:  Solving for p, Initial residual = 5.7329106e-07, Final residual = 9.0207875e-09, No Iterations 71
time step continuity errors : sum local = 2.2582471e-12, global = 1.4735961e-14, cumulative = -1.5405976e-12
DILUPBiCGStab:  Solving for epsilon, Initial residual = 0.002367392, Final residual = 6.4243357e-16, No Iterations 3
DILUPBiCGStab:  Solving for k, Initial residual = 0.006719605, Final residual = 2.8320413e-13, No Iterations 3
ExecutionTime = 2.805028 s  ClockTime = 3 s



volFieldValue mindomain_scalar write:
    min() of p = -0.002580149 at location (0.0060340464 1.0023271e-06 0.5) in cell 25
    min() of k = 4.3948089e-07 at location (1.9785208 0.94257453 0.5) in cell 13055
    min() of epsilon = 4.5784346e-07 at location (1.9785208 0.94257453 0.5) in cell 13055
    min() of nut = 1.7056395e-12 at location (0.0060340464 1.0023271e-06 0.5) in cell 25

volFieldValue mindomain_vector write:
    minMag() of U = 0.03439241 at location (0.0060340464 1.0023271e-06 0.5) in cell 25

volFieldValue maxdomain_scalar write:
    max() of p = 0.0033094286 at location (-0.0020050773 1.0023271e-06 0.5) in cell 23
    max() of k = 0.00047967762 at location (0.0020059438 1.4430548e-05 0.5) in cell 840
    max() of epsilon = 3.3544481 at location (0.0020059438 1.0023271e-06 0.5) in cell 24
    max() of nut = 8.990738e-06 at location (-0.31329649 0.94257453 0.5) in cell 12920

volFieldValue maxdomain_vector write:
    maxMag() of U = 1.0013623 at location (0.0020059438 0.0002999673 0.5) in cell 3968

yPlus yplus_stats write:
    patch bottom y+ : min = 0.41516714, max = 0.45434525, average = 0.41711958

Time = 37s

DILUPBiCGStab:  Solving for Ux, Initial residual = 0.0011635012, Final residual = 4.1621238e-12, No Iterations 3
DILUPBiCGStab:  Solving for Uy, Initial residual = 0.0080416957, Final residual = 2.287539e-09, No Iterations 3
DICPCG:  Solving for p, Initial residual = 0.0067141606, Final residual = 5.9132555e-05, No Iterations 88
DICPCG:  Solving for p, Initial residual = 5.7517419e-05, Final residual = 5.6170594e-07, No Iterations 47
DICPCG:  Solving for p, Initial residual = 5.6168344e-07, Final residual = 9.4099075e-09, No Iterations 70
time step continuity errors : sum local = 2.4086318e-12, global = 2.0554726e-15, cumulative = -1.5385421e-12
DILUPBiCGStab:  Solving for epsilon, Initial residual = 0.0022161459, Final residual = 6.5631208e-16, No Iterations 3
DILUPBiCGStab:  Solving for k, Initial residual = 0.0066060627, Final residual = 2.7842005e-13, No Iterations 3
ExecutionTime = 2.914061 s  ClockTime = 3 s



volFieldValue mindomain_scalar write:
    min() of p = -0.0026219895 at location (0.0060340464 1.0023271e-06 0.5) in cell 25
    min() of k = 4.6041215e-07 at location (1.9785208 0.94257453 0.5) in cell 13055
    min() of epsilon = 4.5755954e-07 at location (1.9785208 0.94257453 0.5) in cell 13055
    min() of nut = 1.6681476e-12 at location (0.0060340464 1.0023271e-06 0.5) in cell 25

volFieldValue mindomain_vector write:
    minMag() of U = 0.033683938 at location (0.0060340464 1.0023271e-06 0.5) in cell 25

volFieldValue maxdomain_scalar write:
    max() of p = 0.0033883736 at location (-0.0020050773 1.0023271e-06 0.5) in cell 23
    max() of k = 0.00048544659 at location (0.0020059438 1.4430548e-05 0.5) in cell 840
    max() of epsilon = 3.2824192 at location (0.0020059438 1.0023271e-06 0.5) in cell 24
    max() of nut = 9.2505184e-06 at location (-0.31329649 0.94257453 0.5) in cell 12920

volFieldValue maxdomain_vector write:
    maxMag() of U = 1.0013779 at location (0.0020059438 0.0002999673 0.5) in cell 3968

yPlus yplus_stats write:
    patch bottom y+ : min = 0.41086868, max = 0.45108539, average = 0.41277662

Time = 38s

[...]
DILUPBiCGStab:  Solving for k, Initial residual = 7.1991162e-07, Final residual = 2.4828666e-16, No Iterations 3
ExecutionTime = 105.23231 s  ClockTime = 105 s



volFieldValue mindomain_scalar write:
    min() of p = -0.00050009166 at location (1.9785208 1.0023271e-06 0.5) in cell 135
    min() of k = 4.0020737e-05 at location (1.9785208 1.0023271e-06 0.5) in cell 135
    min() of epsilon = 4.2199005e-06 at location (1.9785208 0.94257453 0.5) in cell 13055
    min() of nut = 9.0466615e-12 at location (1.9785208 1.0023271e-06 0.5) in cell 135

volFieldValue mindomain_vector write:
    minMag() of U = 0.010560296 at location (1.9785208 1.0023271e-06 0.5) in cell 135

volFieldValue maxdomain_scalar write:
    max() of p = 0.021199256 at location (-0.0020050773 1.0023271e-06 0.5) in cell 23
    max() of k = 0.015116507 at location (0.010095216 7.7588184e-05 0.5) in cell 2474
    max() of epsilon = 82.070236 at location (0.0060340464 1.0023271e-06 0.5) in cell 25
    max() of nut = 0.00045009022 at location (-0.31329649 0.94257453 0.5) in cell 12920

volFieldValue maxdomain_vector write:
    maxMag() of U = 1.0072715 at location (1.9785208 0.10486031 0.5) in cell 10607

yPlus yplus_stats write:
    patch bottom y+ : min = 0.23005311, max = 0.44136493, average = 0.27460248

Time = 1992s

DILUPBiCGStab:  Solving for Ux, Initial residual = 1.1727682e-07, Final residual = 1.1328423e-14, No Iterations 3
DILUPBiCGStab:  Solving for Uy, Initial residual = 5.127975e-06, Final residual = 6.7765194e-13, No Iterations 3
DICPCG:  Solving for p, Initial residual = 2.0485881e-06, Final residual = 1.7854114e-08, No Iterations 66
DICPCG:  Solving for p, Initial residual = 1.7854179e-08, Final residual = 9.3209206e-09, No Iterations 4
DICPCG:  Solving for p, Initial residual = 9.3209213e-09, Final residual = 5.5270134e-09, No Iterations 3
time step continuity errors : sum local = 1.1378814e-10, global = -1.1016916e-11, cumulative = -3.6095989e-09
DILUPBiCGStab:  Solving for epsilon, Initial residual = 1.006685e-07, Final residual = 7.1323477e-19, No Iterations 3
DILUPBiCGStab:  Solving for k, Initial residual = 7.1728972e-07, Final residual = 2.4705127e-16, No Iterations 3
ExecutionTime = 105.27474 s  ClockTime = 105 s



volFieldValue mindomain_scalar write:
    min() of p = -0.00050010316 at location (1.9785208 1.0023271e-06 0.5) in cell 135
    min() of k = 4.0020904e-05 at location (1.9785208 1.0023271e-06 0.5) in cell 135
    min() of epsilon = 4.2179552e-06 at location (1.9785208 0.94257453 0.5) in cell 13055
    min() of nut = 9.0466991e-12 at location (1.9785208 1.0023271e-06 0.5) in cell 135

volFieldValue mindomain_vector write:
    minMag() of U = 0.010560308 at location (1.9785208 1.0023271e-06 0.5) in cell 135

volFieldValue maxdomain_scalar write:
    max() of p = 0.02119929 at location (-0.0020050773 1.0023271e-06 0.5) in cell 23
    max() of k = 0.015116504 at location (0.010095216 7.7588184e-05 0.5) in cell 2474
    max() of epsilon = 82.070176 at location (0.0060340464 1.0023271e-06 0.5) in cell 25
    max() of nut = 0.00045031403 at location (-0.31329649 0.94257453 0.5) in cell 12920

volFieldValue maxdomain_vector write:
    maxMag() of U = 1.0072715 at location (1.9785208 0.10486031 0.5) in cell 10607

yPlus yplus_stats write:
    patch bottom y+ : min = 0.23005323, max = 0.44136477, average = 0.27460253

Time = 1993s

DILUPBiCGStab:  Solving for Ux, Initial residual = 1.167797e-07, Final residual = 1.1272783e-14, No Iterations 3
DILUPBiCGStab:  Solving for Uy, Initial residual = 5.1173843e-06, Final residual = 6.7553431e-13, No Iterations 3
DICPCG:  Solving for p, Initial residual = 2.0462619e-06, Final residual = 1.790947e-08, No Iterations 66
DICPCG:  Solving for p, Initial residual = 1.7909535e-08, Final residual = 9.3872813e-09, No Iterations 4
DICPCG:  Solving for p, Initial residual = 9.3872827e-09, Final residual = 5.5654025e-09, No Iterations 3
time step continuity errors : sum local = 1.1457668e-10, global = -1.1065598e-11, cumulative = -3.6206645e-09
DILUPBiCGStab:  Solving for epsilon, Initial residual = 1.0026366e-07, Final residual = 7.1072379e-19, No Iterations 3
DILUPBiCGStab:  Solving for k, Initial residual = 7.1467859e-07, Final residual = 2.4582242e-16, No Iterations 3
ExecutionTime = 105.32215 s  ClockTime = 105 s



volFieldValue mindomain_scalar write:
    min() of p = -0.00050011461 at location (1.9785208 1.0023271e-06 0.5) in cell 135
    min() of k = 4.002107e-05 at location (1.9785208 1.0023271e-06 0.5) in cell 135
    min() of epsilon = 4.2160117e-06 at location (1.9785208 0.94257453 0.5) in cell 13055
    min() of nut = 9.0467365e-12 at location (1.9785208 1.0023271e-06 0.5) in cell 135

volFieldValue mindomain_vector write:
    minMag() of U = 0.010560319 at location (1.9785208 1.0023271e-06 0.5) in cell 135

volFieldValue maxdomain_scalar write:
    max() of p = 0.021199323 at location (-0.0020050773 1.0023271e-06 0.5) in cell 23
    max() of k = 0.015116501 at location (0.010095216 7.7588184e-05 0.5) in cell 2474
    max() of epsilon = 82.070116 at location (0.0060340464 1.0023271e-06 0.5) in cell 25
    max() of nut = 0.00045053783 at location (-0.31329649 0.94257453 0.5) in cell 12920

volFieldValue maxdomain_vector write:
    maxMag() of U = 1.0072714 at location (1.9785208 0.10486031 0.5) in cell 10607

yPlus yplus_stats write:
    patch bottom y+ : min = 0.23005336, max = 0.44136461, average = 0.27460257

Time = 1994s

DILUPBiCGStab:  Solving for Ux, Initial residual = 1.1628499e-07, Final residual = 1.1217463e-14, No Iterations 3
DILUPBiCGStab:  Solving for Uy, Initial residual = 5.1069557e-06, Final residual = 6.7342635e-13, No Iterations 3
DICPCG:  Solving for p, Initial residual = 2.0439672e-06, Final residual = 1.7962171e-08, No Iterations 66
DICPCG:  Solving for p, Initial residual = 1.7962237e-08, Final residual = 9.4489959e-09, No Iterations 4
DICPCG:  Solving for p, Initial residual = 9.4489963e-09, Final residual = 5.6019629e-09, No Iterations 3
time step continuity errors : sum local = 1.1532733e-10, global = -1.1116207e-11, cumulative = -3.6317807e-09
DILUPBiCGStab:  Solving for epsilon, Initial residual = 9.9860322e-08, Final residual = 7.0822694e-19, No Iterations 3
DILUPBiCGStab:  Solving for k, Initial residual = 7.1207827e-07, Final residual = 2.4460006e-16, No Iterations 3
ExecutionTime = 105.36276 s  ClockTime = 105 s



volFieldValue mindomain_scalar write:
    min() of p = -0.00050012603 at location (1.9785208 1.0023271e-06 0.5) in cell 135
    min() of k = 4.0021236e-05 at location (1.9785208 1.0023271e-06 0.5) in cell 135
    min() of epsilon = 4.21407e-06 at location (1.9785208 0.94257453 0.5) in cell 13055
    min() of nut = 9.0467738e-12 at location (1.9785208 1.0023271e-06 0.5) in cell 135

volFieldValue mindomain_vector write:
    minMag() of U = 0.010560331 at location (1.9785208 1.0023271e-06 0.5) in cell 135

volFieldValue maxdomain_scalar write:
    max() of p = 0.021199357 at location (-0.0020050773 1.0023271e-06 0.5) in cell 23
    max() of k = 0.015116499 at location (0.010095216 7.7588184e-05 0.5) in cell 2474
    max() of epsilon = 82.070057 at location (0.0060340464 1.0023271e-06 0.5) in cell 25
    max() of nut = 0.00045076163 at location (-0.31329649 0.94257453 0.5) in cell 12920

volFieldValue maxdomain_vector write:
    maxMag() of U = 1.0072714 at location (1.9785208 0.10486031 0.5) in cell 10607

yPlus yplus_stats write:
    patch bottom y+ : min = 0.23005349, max = 0.44136445, average = 0.27460261

Time = 1995s

DILUPBiCGStab:  Solving for Ux, Initial residual = 1.1579266e-07, Final residual = 1.1162484e-14, No Iterations 3
DILUPBiCGStab:  Solving for Uy, Initial residual = 5.0964257e-06, Final residual = 6.7132488e-13, No Iterations 3
DICPCG:  Solving for p, Initial residual = 2.0416402e-06, Final residual = 1.8016205e-08, No Iterations 66
DICPCG:  Solving for p, Initial residual = 1.8016271e-08, Final residual = 9.5158506e-09, No Iterations 4
DICPCG:  Solving for p, Initial residual = 9.5158504e-09, Final residual = 5.6518133e-09, No Iterations 3
time step continuity errors : sum local = 1.163517e-10, global = -1.1159726e-11, cumulative = -3.6429405e-09
DILUPBiCGStab:  Solving for epsilon, Initial residual = 9.9458451e-08, Final residual = 7.0574165e-19, No Iterations 3
DILUPBiCGStab:  Solving for k, Initial residual = 7.0948871e-07, Final residual = 2.4338419e-16, No Iterations 3
ExecutionTime = 105.40552 s  ClockTime = 105 s



volFieldValue mindomain_scalar write:
    min() of p = -0.00050013741 at location (1.9785208 1.0023271e-06 0.5) in cell 135
    min() of k = 4.0021401e-05 at location (1.9785208 1.0023271e-06 0.5) in cell 135
    min() of epsilon = 4.2121301e-06 at location (1.9785208 0.94257453 0.5) in cell 13055
    min() of nut = 9.046811e-12 at location (1.9785208 1.0023271e-06 0.5) in cell 135

volFieldValue mindomain_vector write:
    minMag() of U = 0.010560343 at location (1.9785208 1.0023271e-06 0.5) in cell 135

volFieldValue maxdomain_scalar write:
    max() of p = 0.02119939 at location (-0.0020050773 1.0023271e-06 0.5) in cell 23
    max() of k = 0.015116496 at location (0.010095216 7.7588184e-05 0.5) in cell 2474
    max() of epsilon = 82.069997 at location (0.0060340464 1.0023271e-06 0.5) in cell 25
    max() of nut = 0.00045098543 at location (-0.31329649 0.94257453 0.5) in cell 12920

volFieldValue maxdomain_vector write:
    maxMag() of U = 1.0072713 at location (1.9785208 0.10486031 0.5) in cell 10607

yPlus yplus_stats write:
    patch bottom y+ : min = 0.23005361, max = 0.44136429, average = 0.27460265

Time = 1996s

DILUPBiCGStab:  Solving for Ux, Initial residual = 1.1530255e-07, Final residual = 1.1107929e-14, No Iterations 3
DILUPBiCGStab:  Solving for Uy, Initial residual = 5.0861058e-06, Final residual = 6.6923541e-13, No Iterations 3
DICPCG:  Solving for p, Initial residual = 2.0393545e-06, Final residual = 1.8066292e-08, No Iterations 66
DICPCG:  Solving for p, Initial residual = 1.8066361e-08, Final residual = 9.5805535e-09, No Iterations 4
DICPCG:  Solving for p, Initial residual = 9.5805541e-09, Final residual = 5.6924027e-09, No Iterations 3
time step continuity errors : sum local = 1.1718527e-10, global = -1.1203968e-11, cumulative = -3.6541444e-09
DILUPBiCGStab:  Solving for epsilon, Initial residual = 9.9058033e-08, Final residual = 7.0326782e-19, No Iterations 3
DILUPBiCGStab:  Solving for k, Initial residual = 7.0691001e-07, Final residual = 2.4217477e-16, No Iterations 3
ExecutionTime = 105.44907 s  ClockTime = 105 s



volFieldValue mindomain_scalar write:
    min() of p = -0.00050014875 at location (1.9785208 1.0023271e-06 0.5) in cell 135
    min() of k = 4.0021565e-05 at location (1.9785208 1.0023271e-06 0.5) in cell 135
    min() of epsilon = 4.2101919e-06 at location (1.9785208 0.94257453 0.5) in cell 13055
    min() of nut = 9.0468481e-12 at location (1.9785208 1.0023271e-06 0.5) in cell 135

volFieldValue mindomain_vector write:
    minMag() of U = 0.010560354 at location (1.9785208 1.0023271e-06 0.5) in cell 135

volFieldValue maxdomain_scalar write:
    max() of p = 0.021199423 at location (-0.0020050773 1.0023271e-06 0.5) in cell 23
    max() of k = 0.015116494 at location (0.010095216 7.7588184e-05 0.5) in cell 2474
    max() of epsilon = 82.069938 at location (0.0060340464 1.0023271e-06 0.5) in cell 25
    max() of nut = 0.00045120923 at location (-0.31329649 0.94257453 0.5) in cell 12920

volFieldValue maxdomain_vector write:
    maxMag() of U = 1.0072713 at location (1.9785208 0.10486031 0.5) in cell 10607

yPlus yplus_stats write:
    patch bottom y+ : min = 0.23005374, max = 0.44136413, average = 0.27460269

Time = 1997s

DILUPBiCGStab:  Solving for Ux, Initial residual = 1.1481486e-07, Final residual = 1.1053721e-14, No Iterations 3
DILUPBiCGStab:  Solving for Uy, Initial residual = 5.0757053e-06, Final residual = 6.6715358e-13, No Iterations 3
DICPCG:  Solving for p, Initial residual = 2.0370844e-06, Final residual = 1.8117468e-08, No Iterations 66
DICPCG:  Solving for p, Initial residual = 1.8117537e-08, Final residual = 9.6477677e-09, No Iterations 4
DICPCG:  Solving for p, Initial residual = 9.6477684e-09, Final residual = 5.7342435e-09, No Iterations 3
time step continuity errors : sum local = 1.1804491e-10, global = -1.124844e-11, cumulative = -3.6653929e-09
DILUPBiCGStab:  Solving for epsilon, Initial residual = 9.8659066e-08, Final residual = 7.0080547e-19, No Iterations 3
DILUPBiCGStab:  Solving for k, Initial residual = 7.04342e-07, Final residual = 2.4097185e-16, No Iterations 3
ExecutionTime = 105.49026 s  ClockTime = 105 s



volFieldValue mindomain_scalar write:
    min() of p = -0.00050016006 at location (1.9785208 1.0023271e-06 0.5) in cell 135
    min() of k = 4.0021729e-05 at location (1.9785208 1.0023271e-06 0.5) in cell 135
    min() of epsilon = 4.2082555e-06 at location (1.9785208 0.94257453 0.5) in cell 13055
    min() of nut = 9.046885e-12 at location (1.9785208 1.0023271e-06 0.5) in cell 135

volFieldValue mindomain_vector write:
    minMag() of U = 0.010560366 at location (1.9785208 1.0023271e-06 0.5) in cell 135

volFieldValue maxdomain_scalar write:
    max() of p = 0.021199456 at location (-0.0020050773 1.0023271e-06 0.5) in cell 23
    max() of k = 0.015116491 at location (0.010095216 7.7588184e-05 0.5) in cell 2474
    max() of epsilon = 82.069878 at location (0.0060340464 1.0023271e-06 0.5) in cell 25
    max() of nut = 0.00045143304 at location (-0.31329649 0.94257453 0.5) in cell 12920

volFieldValue maxdomain_vector write:
    maxMag() of U = 1.0072713 at location (1.9785208 0.10486031 0.5) in cell 10607

yPlus yplus_stats write:
    patch bottom y+ : min = 0.23005386, max = 0.44136397, average = 0.27460273

Time = 1998s

DILUPBiCGStab:  Solving for Ux, Initial residual = 1.143294e-07, Final residual = 1.0999813e-14, No Iterations 3
DILUPBiCGStab:  Solving for Uy, Initial residual = 5.065399e-06, Final residual = 6.6508116e-13, No Iterations 3
DICPCG:  Solving for p, Initial residual = 2.034845e-06, Final residual = 1.8167017e-08, No Iterations 66
DICPCG:  Solving for p, Initial residual = 1.8167088e-08, Final residual = 9.7145316e-09, No Iterations 4
DICPCG:  Solving for p, Initial residual = 9.7145316e-09, Final residual = 5.7734286e-09, No Iterations 3
time step continuity errors : sum local = 1.1884952e-10, global = -1.12917e-11, cumulative = -3.6766846e-09
DILUPBiCGStab:  Solving for epsilon, Initial residual = 9.8261585e-08, Final residual = 6.983545e-19, No Iterations 3
DILUPBiCGStab:  Solving for k, Initial residual = 7.0178462e-07, Final residual = 2.3977532e-16, No Iterations 3
ExecutionTime = 105.53391 s  ClockTime = 105 s



volFieldValue mindomain_scalar write:
    min() of p = -0.00050017132 at location (1.9785208 1.0023271e-06 0.5) in cell 135
    min() of k = 4.0021893e-05 at location (1.9785208 1.0023271e-06 0.5) in cell 135
    min() of epsilon = 4.2063208e-06 at location (1.9785208 0.94257453 0.5) in cell 13055
    min() of nut = 9.0469219e-12 at location (1.9785208 1.0023271e-06 0.5) in cell 135

volFieldValue mindomain_vector write:
    minMag() of U = 0.010560377 at location (1.9785208 1.0023271e-06 0.5) in cell 135

volFieldValue maxdomain_scalar write:
    max() of p = 0.021199489 at location (-0.0020050773 1.0023271e-06 0.5) in cell 23
    max() of k = 0.015116488 at location (0.010095216 7.7588184e-05 0.5) in cell 2474
    max() of epsilon = 82.069819 at location (0.0060340464 1.0023271e-06 0.5) in cell 25
    max() of nut = 0.00045165684 at location (-0.31329649 0.94257453 0.5) in cell 12920

volFieldValue maxdomain_vector write:
    maxMag() of U = 1.0072712 at location (1.9785208 0.10486031 0.5) in cell 10607

yPlus yplus_stats write:
    patch bottom y+ : min = 0.23005399, max = 0.44136382, average = 0.27460277

Time = 1999s

DILUPBiCGStab:  Solving for Ux, Initial residual = 1.1384626e-07, Final residual = 1.0946233e-14, No Iterations 3
DILUPBiCGStab:  Solving for Uy, Initial residual = 5.0551233e-06, Final residual = 6.6301671e-13, No Iterations 3
DICPCG:  Solving for p, Initial residual = 2.0326244e-06, Final residual = 1.8216181e-08, No Iterations 66
DICPCG:  Solving for p, Initial residual = 1.8216253e-08, Final residual = 9.7808432e-09, No Iterations 4
DICPCG:  Solving for p, Initial residual = 9.780843e-09, Final residual = 5.8160726e-09, No Iterations 3
time step continuity errors : sum local = 1.1972533e-10, global = -1.1334076e-11, cumulative = -3.6880187e-09
DILUPBiCGStab:  Solving for epsilon, Initial residual = 9.7865582e-08, Final residual = 6.9591524e-19, No Iterations 3
DILUPBiCGStab:  Solving for k, Initial residual = 6.9923785e-07, Final residual = 2.3858518e-16, No Iterations 3
ExecutionTime = 105.57628 s  ClockTime = 105 s



volFieldValue mindomain_scalar write:
    min() of p = -0.00050018255 at location (1.9785208 1.0023271e-06 0.5) in cell 135
    min() of k = 4.0022056e-05 at location (1.9785208 1.0023271e-06 0.5) in cell 135
    min() of epsilon = 4.204388e-06 at location (1.9785208 0.94257453 0.5) in cell 13055
    min() of nut = 9.0469586e-12 at location (1.9785208 1.0023271e-06 0.5) in cell 135

volFieldValue mindomain_vector write:
    minMag() of U = 0.010560389 at location (1.9785208 1.0023271e-06 0.5) in cell 135

volFieldValue maxdomain_scalar write:
    max() of p = 0.021199522 at location (-0.0020050773 1.0023271e-06 0.5) in cell 23
    max() of k = 0.015116486 at location (0.010095216 7.7588184e-05 0.5) in cell 2474
    max() of epsilon = 82.06976 at location (0.0060340464 1.0023271e-06 0.5) in cell 25
    max() of nut = 0.00045188064 at location (-0.31329649 0.94257453 0.5) in cell 12920

volFieldValue maxdomain_vector write:
    maxMag() of U = 1.0072712 at location (1.9785208 0.10486031 0.5) in cell 10607

yPlus yplus_stats write:
    patch bottom y+ : min = 0.23005411, max = 0.44136366, average = 0.27460281

Time = 2000s

DILUPBiCGStab:  Solving for Ux, Initial residual = 1.1336539e-07, Final residual = 1.0892955e-14, No Iterations 3
DILUPBiCGStab:  Solving for Uy, Initial residual = 5.0448729e-06, Final residual = 6.6095974e-13, No Iterations 3
DICPCG:  Solving for p, Initial residual = 2.0304074e-06, Final residual = 1.8265266e-08, No Iterations 66
DICPCG:  Solving for p, Initial residual = 1.8265338e-08, Final residual = 9.8478078e-09, No Iterations 4
DICPCG:  Solving for p, Initial residual = 9.8478079e-09, Final residual = 5.8583651e-09, No Iterations 3
time step continuity errors : sum local = 1.2059386e-10, global = -1.1376284e-11, cumulative = -3.6993949e-09
DILUPBiCGStab:  Solving for epsilon, Initial residual = 9.7471063e-08, Final residual = 6.9348798e-19, No Iterations 3
DILUPBiCGStab:  Solving for k, Initial residual = 6.9670169e-07, Final residual = 2.3739732e-16, No Iterations 3
ExecutionTime = 105.66958 s  ClockTime = 106 s



volFieldValue mindomain_scalar write:
    min() of p = -0.00050019375 at location (1.9785208 1.0023271e-06 0.5) in cell 135
    min() of k = 4.0022218e-05 at location (1.9785208 1.0023271e-06 0.5) in cell 135
    min() of epsilon = 4.2024569e-06 at location (1.9785208 0.94257453 0.5) in cell 13055
    min() of nut = 9.0469951e-12 at location (1.9785208 1.0023271e-06 0.5) in cell 135

volFieldValue mindomain_vector write:
    minMag() of U = 0.0105604 at location (1.9785208 1.0023271e-06 0.5) in cell 135

volFieldValue maxdomain_scalar write:
    max() of p = 0.021199555 at location (-0.0020050773 1.0023271e-06 0.5) in cell 23
    max() of k = 0.015116483 at location (0.010095216 7.7588184e-05 0.5) in cell 2474
    max() of epsilon = 82.069701 at location (0.0060340464 1.0023271e-06 0.5) in cell 25
    max() of nut = 0.00045210445 at location (-0.31329649 0.94257453 0.5) in cell 12920

volFieldValue maxdomain_vector write:
    maxMag() of U = 1.0072712 at location (1.9785208 0.10486031 0.5) in cell 10607

yPlus yplus_stats write:
    patch bottom y+ : min = 0.23005424, max = 0.4413635, average = 0.27460285

End

