/*---------------------------------------------------------------------------*\
  =========                 |
  \\      /  F ield         | OpenFOAM: The Open Source CFD Toolbox
   \\    /   O peration     | Website:  https://openfoam.org
    \\  /    A nd           | Version:  12
     \\/     M anipulation  |
\*---------------------------------------------------------------------------*/
Build  : 12-86e126a7bc4d
Exec   : foamRun
Date   : Jun 14 2026
Time   : 22:04:46
Host   : "NotebookdoDan"
PID    : 71626
I/O    : uncollated
Case   : /home/danilom/OpenFOAM/danilom-12/run/GT2/RANS/KEpsilon_highRE_V1
nProcs : 1
sigFpe : Enabling floating point exception trapping (FOAM_SIGFPE).
fileModificationChecking : Monitoring run-time modified files using timeStampMaster (fileModificationSkew 10)
allowSystemOperations : Allowing user-supplied system call operations

// * * * * * * * * * * * * * * * * * * * * * * * * * * * * * * * * * * * * * //
Create time

Create mesh for time = 0

Selecting solver incompressibleFluid
Selecting viscosity model Newtonian
Selecting turbulence model type RAS
Selecting RAS turbulence model kEpsilon
RAS
{
    RASModel        kEpsilon;
    turbulence      on;
    printCoeffs     on;
    Cmu             0.09;
    C1              1.44;
    C2              1.92;
    C3              0;
    sigmak          1;
    sigmaEps        1.3;
}

No MRF models present


SIMPLE: Convergence criteria found
        p: tolerance 1e-06
        U: tolerance 1e-06
        "(k|omega|epsilon)": tolerance 1e-06


SIMPLE: Operating solver in steady-state mode with 1 outer corrector
SIMPLE: Operating solver in SIMPLE mode



Starting time loop

    - selecting all cells
    - selected 7480 cell(s) with volume 2.33333


    - selecting all cells
    - selected 7480 cell(s) with volume 2.33333


    - selecting all cells
    - selected 7480 cell(s) with volume 2.33333


    - selecting all cells
    - selected 7480 cell(s) with volume 2.33333


    - selecting all cells
    - selected 7480 cell(s) with volume 2.33333


    - selecting all cells
    - selected 7480 cell(s) with volume 2.33333




volFieldValue mindomain_scalar write:
    min() of p = 0 at location (0.0015663151 0.0004006648 0.5) in cell 0
    min() of k = 0.00015 at location (0.0015663151 0.0004006648 0.5) in cell 0
    min() of epsilon = 0.01 at location (0.0015663151 0.0004006648 0.5) in cell 0
    min() of nut = 2.025e-07 at location (0.0015663151 0.0004006648 0.5) in cell 0

volFieldValue mindomain_vector write:
    minMag() of U = 1 at location (0.0015663151 0.0004006648 0.5) in cell 0

volFieldValue maxdomain_scalar write:
    max() of p = 0 at location (0.0015663151 0.0004006648 0.5) in cell 0
    max() of k = 0.00015 at location (0.0015663151 0.0004006648 0.5) in cell 0
    max() of epsilon = 0.01 at location (0.0015663151 0.0004006648 0.5) in cell 0
    max() of nut = 2.025e-07 at location (0.0015663151 0.0004006648 0.5) in cell 0

volFieldValue maxdomain_vector write:
    maxMag() of U = 1 at location (0.0015663151 0.0004006648 0.5) in cell 0

yPlus yplus_stats write:
    patch bottom y+ : min = 13.438706, max = 13.438706, average = 13.438706

Time = 1s

DILUPBiCGStab:  Solving for Ux, Initial residual = 1, Final residual = 8.332544e-15, No Iterations 3
DILUPBiCGStab:  Solving for Uy, Initial residual = 0.99991902, Final residual = 3.9159393e-13, No Iterations 3
DICPCG:  Solving for p, Initial residual = 1, Final residual = 0.0074511046, No Iterations 83
DICPCG:  Solving for p, Initial residual = 5.8292801e-05, Final residual = 4.578708e-07, No Iterations 36
DICPCG:  Solving for p, Initial residual = 4.578943e-07, Final residual = 9.1924931e-09, No Iterations 60
time step continuity errors : sum local = 3.3491688e-11, global = -3.4861994e-12, cumulative = -3.4861994e-12
DILUPBiCGStab:  Solving for epsilon, Initial residual = 0.99874157, Final residual = 1.805193e-20, No Iterations 3
DILUPBiCGStab:  Solving for k, Initial residual = 1, Final residual = 3.556182e-17, No Iterations 3
ExecutionTime = 0.10427 s  ClockTime = 0 s



volFieldValue mindomain_scalar write:
    min() of p = 7.9419078e-06 at location (1.9686737 0.91041837 0.5) in cell 7479
    min() of k = 8.8091959e-05 at location (-0.20036111 0.91041837 0.5) in cell 5671
    min() of epsilon = 0.0018376116 at location (0.042456348 0.0004006648 0.5) in cell 11
    min() of nut = 1.3078382e-07 at location (-0.28438808 0.91041837 0.5) in cell 5670

volFieldValue mindomain_vector write:
    minMag() of U = 0.92255472 at location (1.9686737 0.0004006648 0.5) in cell 99

volFieldValue maxdomain_scalar write:
    max() of p = 0.0010848787 at location (0.0047470663 0.0004006648 0.5) in cell 1
    max() of k = 0.00062657251 at location (1.9686737 0.0004006648 0.5) in cell 99
    max() of epsilon = 0.0076911461 at location (0.0080255378 0.0020572852 0.5) in cell 202
    max() of nut = 1.9227882e-05 at location (1.9686737 0.0004006648 0.5) in cell 99

volFieldValue maxdomain_vector write:
    maxMag() of U = 1.000074 at location (1.9686737 0.0067077814 0.5) in cell 799

yPlus yplus_stats write:
    patch bottom y+ : min = 14.263739, max = 27.466131, average = 21.179754

Time = 2s

DILUPBiCGStab:  Solving for Ux, Initial residual = 0.05424575, Final residual = 5.5325426e-10, No Iterations 3
DILUPBiCGStab:  Solving for Uy, Initial residual = 0.32334286, Final residual = 3.196034e-09, No Iterations 3
DICPCG:  Solving for p, Initial residual = 0.036870047, Final residual = 0.00036063159, No Iterations 73
DICPCG:  Solving for p, Initial residual = 0.00016961403, Final residual = 1.5412603e-06, No Iterations 45
DICPCG:  Solving for p, Initial residual = 1.5413938e-06, Final residual = 1.2232032e-08, No Iterations 78
time step continuity errors : sum local = 6.8292883e-11, global = 3.5739233e-13, cumulative = -3.128807e-12
DILUPBiCGStab:  Solving for epsilon, Initial residual = 0.67302363, Final residual = 2.4910797e-20, No Iterations 3
DILUPBiCGStab:  Solving for k, Initial residual = 0.55072444, Final residual = 2.877629e-17, No Iterations 3
ExecutionTime = 0.128393 s  ClockTime = 0 s



volFieldValue mindomain_scalar write:
    min() of p = 1.303793e-05 at location (1.9686737 0.91041837 0.5) in cell 7479
    min() of k = 5.3219781e-05 at location (-0.20036111 0.91041837 0.5) in cell 5671
    min() of epsilon = 0.0021972602 at location (0.0015663151 0.0004006648 0.5) in cell 0
    min() of nut = 9.0336323e-08 at location (-0.20036111 0.91041837 0.5) in cell 5671

volFieldValue mindomain_vector write:
    minMag() of U = 0.89581842 at location (1.9686737 0.0004006648 0.5) in cell 99

volFieldValue maxdomain_scalar write:
    max() of p = 0.0020385798 at location (0.0047470663 0.0004006648 0.5) in cell 1
    max() of k = 0.0011813357 at location (1.9686737 0.0004006648 0.5) in cell 99
    max() of epsilon = 0.015688226 at location (1.9686737 0.0004006648 0.5) in cell 99
    max() of nut = 8.2761473e-06 at location (1.1739941 0.0004006648 0.5) in cell 83

volFieldValue maxdomain_vector write:
    maxMag() of U = 1.000155 at location (1.9686737 0.021542526 0.5) in cell 1999

yPlus yplus_stats write:
    patch bottom y+ : min = 14.139128, max = 37.713642, average = 28.627689

Time = 3s

DILUPBiCGStab:  Solving for Ux, Initial residual = 0.037365289, Final residual = 9.6233702e-10, No Iterations 3
DILUPBiCGStab:  Solving for Uy, Initial residual = 0.22612853, Final residual = 9.4969255e-11, No Iterations 3
DICPCG:  Solving for p, Initial residual = 0.012476639, Final residual = 0.0001126447, No Iterations 72
DICPCG:  Solving for p, Initial residual = 7.4044476e-05, Final residual = 7.1591422e-07, No Iterations 31
DICPCG:  Solving for p, Initial residual = 7.1591081e-07, Final residual = 8.5264257e-09, No Iterations 63
time step continuity errors : sum local = 6.118555e-11, global = 8.0183434e-13, cumulative = -2.3269727e-12
DILUPBiCGStab:  Solving for epsilon, Initial residual = 0.4166592, Final residual = 2.9689903e-20, No Iterations 3
DILUPBiCGStab:  Solving for k, Initial residual = 0.31822866, Final residual = 1.1131692e-17, No Iterations 3
ExecutionTime = 0.150117 s  ClockTime = 0 s



volFieldValue mindomain_scalar write:
    min() of p = 1.7783074e-05 at location (1.9686737 0.91041837 0.5) in cell 7479
    min() of k = 3.2648111e-05 at location (1.9686737 0.91041837 0.5) in cell 7479
    min() of epsilon = 0.0015133023 at location (1.9686737 0.91041837 0.5) in cell 7479
    min() of nut = 6.3391776e-08 at location (1.9686737 0.91041837 0.5) in cell 7479

volFieldValue mindomain_vector write:
    minMag() of U = 0.82219776 at location (1.9686737 0.0004006648 0.5) in cell 99

volFieldValue maxdomain_scalar write:
    max() of p = 0.0028068021 at location (0.0047470663 0.0004006648 0.5) in cell 1
    max() of k = 0.0019724916 at location (1.9686737 0.0004006648 0.5) in cell 99
    max() of epsilon = 0.040614098 at location (1.9686737 0.0004006648 0.5) in cell 99
    max() of nut = 8.6305593e-06 at location (1.7889812 0.0004006648 0.5) in cell 96

volFieldValue maxdomain_vector write:
    maxMag() of U = 1.0002716 at location (1.9686737 0.02793665 0.5) in cell 2399

yPlus yplus_stats write:
    patch bottom y+ : min = 13.413368, max = 48.732579, average = 36.518375

Time = 4s

DILUPBiCGStab:  Solving for Ux, Initial residual = 0.026368927, Final residual = 3.1338363e-09, No Iterations 3
DILUPBiCGStab:  Solving for Uy, Initial residual = 0.17953758, Final residual = 1.5532255e-10, No Iterations 3
DICPCG:  Solving for p, Initial residual = 0.011227894, Final residual = 0.00010559887, No Iterations 71
DICPCG:  Solving for p, Initial residual = 8.2331942e-05, Final residual = 6.9824875e-07, No Iterations 39
DICPCG:  Solving for p, Initial residual = 6.9825532e-07, Final residual = 9.0266994e-09, No Iterations 67
time step continuity errors : sum local = 7.4910014e-11, global = -1.0264271e-12, cumulative = -3.3533998e-12
DILUPBiCGStab:  Solving for epsilon, Initial residual = 0.234708, Final residual = 2.9890082e-20, No Iterations 3
DILUPBiCGStab:  Solving for k, Initial residual = 0.18941454, Final residual = 6.6362601e-18, No Iterations 3
ExecutionTime = 0.172489 s  ClockTime = 0 s



volFieldValue mindomain_scalar write:
    min() of p = 2.0856547e-05 at location (1.9686737 0.91041837 0.5) in cell 7479
    min() of k = 2.0316544e-05 at location (1.9686737 0.91041837 0.5) in cell 7479
    min() of epsilon = 0.00081918464 at location (1.9686737 0.91041837 0.5) in cell 7479
    min() of nut = 4.5348233e-08 at location (1.9686737 0.91041837 0.5) in cell 7479

volFieldValue mindomain_vector write:
    minMag() of U = 0.75253372 at location (1.9686737 0.0004006648 0.5) in cell 99

volFieldValue maxdomain_scalar write:
    max() of p = 0.0033921373 at location (0.0047470663 0.0004006648 0.5) in cell 1
    max() of k = 0.0026646413 at location (1.9069548 0.0004006648 0.5) in cell 98
    max() of epsilon = 0.087627328 at location (1.9686737 0.0004006648 0.5) in cell 99
    max() of nut = 7.6723487e-06 at location (0.86979998 0.0004006648 0.5) in cell 74

volFieldValue maxdomain_vector write:
    maxMag() of U = 1.0004006 at location (1.9686737 0.037206184 0.5) in cell 2899

yPlus yplus_stats write:
    patch bottom y+ : min = 12.338989, max = 56.641037, average = 43.636898

Time = 5s

DILUPBiCGStab:  Solving for Ux, Initial residual = 0.019710831, Final residual = 1.3332919e-09, No Iterations 3
DILUPBiCGStab:  Solving for Uy, Initial residual = 0.14607052, Final residual = 1.0193224e-10, No Iterations 3
DICPCG:  Solving for p, Initial residual = 0.0096995774, Final residual = 9.3194345e-05, No Iterations 68
DICPCG:  Solving for p, Initial residual = 7.8562817e-05, Final residual = 6.815568e-07, No Iterations 49
DICPCG:  Solving for p, Initial residual = 6.8158038e-07, Final residual = 9.343685e-09, No Iterations 66
time step continuity errors : sum local = 8.6339171e-11, global = -7.6294762e-12, cumulative = -1.0982876e-11
DILUPBiCGStab:  Solving for epsilon, Initial residual = 0.12359391, Final residual = 2.5393176e-20, No Iterations 3
DILUPBiCGStab:  Solving for k, Initial residual = 0.12181084, Final residual = 4.6221195e-18, No Iterations 3
ExecutionTime = 0.194341 s  ClockTime = 0 s



volFieldValue mindomain_scalar write:
    min() of p = 2.2833833e-05 at location (1.9686737 0.91041837 0.5) in cell 7479
    min() of k = 1.2909153e-05 at location (1.9686737 0.91041837 0.5) in cell 7479
    min() of epsilon = 0.00044809684 at location (1.9686737 0.91041837 0.5) in cell 7479
    min() of nut = 3.34708e-08 at location (1.9686737 0.91041837 0.5) in cell 7479

volFieldValue mindomain_vector write:
    minMag() of U = 0.67972049 at location (1.9686737 0.0004006648 0.5) in cell 99

volFieldValue maxdomain_scalar write:
    max() of p = 0.0038758287 at location (0.0047470663 0.0004006648 0.5) in cell 1
    max() of k = 0.0032072086 at location (1.382416 0.0004006648 0.5) in cell 88
    max() of epsilon = 0.13758623 at location (1.9069548 0.0004006648 0.5) in cell 98
    max() of nut = 7.3129125e-06 at location (0.61606728 0.0004006648 0.5) in cell 64

volFieldValue maxdomain_vector write:
    maxMag() of U = 1.0005323 at location (1.9686737 0.048130175 0.5) in cell 3399

yPlus yplus_stats write:
    patch bottom y+ : min = 11.103253, max = 62.140597, average = 49.715162

Time = 6s

DILUPBiCGStab:  Solving for Ux, Initial residual = 0.015216427, Final residual = 4.9913949e-10, No Iterations 3
DILUPBiCGStab:  Solving for Uy, Initial residual = 0.12120828, Final residual = 2.9603833e-11, No Iterations 3
DICPCG:  Solving for p, Initial residual = 0.0080143216, Final residual = 7.6352209e-05, No Iterations 72
DICPCG:  Solving for p, Initial residual = 6.8086316e-05, Final residual = 6.6040318e-07, No Iterations 34
DICPCG:  Solving for p, Initial residual = 6.6040653e-07, Final residual = 8.1349977e-09, No Iterations 73
time step continuity errors : sum local = 8.0722558e-11, global = 3.8975683e-12, cumulative = -7.0853077e-12
DILUPBiCGStab:  Solving for epsilon, Initial residual = 0.064705301, Final residual = 2.7274467e-19, No Iterations 3
DILUPBiCGStab:  Solving for k, Initial residual = 0.080805513, Final residual = 6.0676081e-18, No Iterations 3
ExecutionTime = 0.216197 s  ClockTime = 0 s



volFieldValue mindomain_scalar write:
    min() of p = 2.3742926e-05 at location (1.9686737 0.91041837 0.5) in cell 7479
    min() of k = 8.398448e-06 at location (1.9686737 0.91041837 0.5) in cell 7479
    min() of epsilon = 0.00024820734 at location (1.9686737 0.91041837 0.5) in cell 7479
    min() of nut = 2.5575608e-08 at location (1.9686737 0.91041837 0.5) in cell 7479

volFieldValue mindomain_vector write:
    minMag() of U = 0.61452206 at location (1.9686737 0.0004006648 0.5) in cell 99

volFieldValue maxdomain_scalar write:
    max() of p = 0.0042704109 at location (0.0047470663 0.0004006648 0.5) in cell 1
    max() of k = 0.0036399213 at location (0.96214474 0.0004006648 0.5) in cell 77
    max() of epsilon = 0.18168022 at location (1.382416 0.0004006648 0.5) in cell 88
    max() of nut = 7.1093117e-06 at location (0.46168579 0.0004006648 0.5) in cell 56

volFieldValue maxdomain_vector write:
    maxMag() of U = 1.0006585 at location (1.9686737 0.055599461 0.5) in cell 3699

yPlus yplus_stats write:
    patch bottom y+ : min = 8.1972256, max = 66.199973, average = 54.596089

Time = 7s

DILUPBiCGStab:  Solving for Ux, Initial residual = 0.012063806, Final residual = 7.06337e-10, No Iterations 3
DILUPBiCGStab:  Solving for Uy, Initial residual = 0.10162666, Final residual = 2.5997277e-11, No Iterations 3
DICPCG:  Solving for p, Initial residual = 0.0075663718, Final residual = 6.9285761e-05, No Iterations 73
DICPCG:  Solving for p, Initial residual = 6.4692966e-05, Final residual = 5.8708436e-07, No Iterations 38
DICPCG:  Solving for p, Initial residual = 5.8705834e-07, Final residual = 8.1550394e-09, No Iterations 67
time step continuity errors : sum local = 8.4252837e-11, global = -9.9659807e-13, cumulative = -8.0819058e-12
DILUPBiCGStab:  Solving for epsilon, Initial residual = 0.035927649, Final residual = 3.6560568e-20, No Iterations 3
DILUPBiCGStab:  Solving for k, Initial residual = 0.054350103, Final residual = 2.2330747e-17, No Iterations 3
ExecutionTime = 0.237757 s  ClockTime = 0 s



volFieldValue mindomain_scalar write:
    min() of p = 1.4849514e-05 at location (1.9686737 0.0004006648 0.5) in cell 99
    min() of k = 5.6110552e-06 at location (1.9686737 0.91041837 0.5) in cell 7479
    min() of epsilon = 0.00013906177 at location (0.0015663151 0.0004006648 0.5) in cell 0
    min() of nut = 2.0299882e-08 at location (1.9686737 0.91041837 0.5) in cell 7479

volFieldValue mindomain_vector write:
    minMag() of U = 0.56043759 at location (1.9686737 0.0004006648 0.5) in cell 99

volFieldValue maxdomain_scalar write:
    max() of p = 0.0045718807 at location (0.0047470663 0.0004006648 0.5) in cell 1
    max() of k = 0.0039883974 at location (0.73335448 0.0004006648 0.5) in cell 69
    max() of epsilon = 0.21966194 at location (0.96214474 0.0004006648 0.5) in cell 77
    max() of nut = 6.994301e-06 at location (0.36810195 0.0004006648 0.5) in cell 50

volFieldValue maxdomain_vector write:
    maxMag() of U = 1.0007769 at location (1.9069548 0.014645281 0.5) in cell 1498

yPlus yplus_stats write:
    patch bottom y+ : min = 6.7346054, max = 69.296457, average = 58.374351

Time = 8s

DILUPBiCGStab:  Solving for Ux, Initial residual = 0.0097547832, Final residual = 6.2042284e-10, No Iterations 3
DILUPBiCGStab:  Solving for Uy, Initial residual = 0.085698609, Final residual = 2.4345215e-11, No Iterations 3
DICPCG:  Solving for p, Initial residual = 0.0078830007, Final residual = 7.8315146e-05, No Iterations 72
DICPCG:  Solving for p, Initial residual = 7.5782052e-05, Final residual = 5.9160975e-07, No Iterations 64
DICPCG:  Solving for p, Initial residual = 5.9156234e-07, Final residual = 7.960742e-09, No Iterations 68
time step continuity errors : sum local = 8.3678716e-11, global = 1.4046004e-13, cumulative = -7.9414457e-12
DILUPBiCGStab:  Solving for epsilon, Initial residual = 0.022056665, Final residual = 9.6071366e-20, No Iterations 3
DILUPBiCGStab:  Solving for k, Initial residual = 0.039558731, Final residual = 5.8686464e-17, No Iterations 3
ExecutionTime = 0.264043 s  ClockTime = 0 s



volFieldValue mindomain_scalar write:
    min() of p = 5.0622263e-06 at location (1.9686737 0.0004006648 0.5) in cell 99
    min() of k = 3.861504e-06 at location (1.9686737 0.91041837 0.5) in cell 7479
    min() of epsilon = 7.9948346e-05 at location (1.9686737 0.91041837 0.5) in cell 7479
    min() of nut = 1.6785953e-08 at location (1.9686737 0.91041837 0.5) in cell 7479

volFieldValue mindomain_vector write:
    minMag() of U = 0.51889192 at location (1.9686737 0.0004006648 0.5) in cell 99

volFieldValue maxdomain_scalar write:
    max() of p = 0.0047836716 at location (0.0047470663 0.0004006648 0.5) in cell 1
    max() of k = 0.0042719504 at location (0.57390086 0.0004006648 0.5) in cell 62
    max() of epsilon = 0.25195007 at location (0.73335448 0.0004006648 0.5) in cell 69
    max() of nut = 6.9296776e-06 at location (0.30209982 0.0004006648 0.5) in cell 45

volFieldValue maxdomain_vector write:
    maxMag() of U = 1.0008882 at location (1.9069548 0.014645281 0.5) in cell 1498

yPlus yplus_stats write:
    patch bottom y+ : min = 5.9037914, max = 71.717463, average = 61.201209

Time = 9s

DILUPBiCGStab:  Solving for Ux, Initial residual = 0.0080144227, Final residual = 6.50881e-10, No Iterations 3
DILUPBiCGStab:  Solving for Uy, Initial residual = 0.072632605, Final residual = 3.6201079e-11, No Iterations 3
DICPCG:  Solving for p, Initial residual = 0.0081923476, Final residual = 6.3511628e-05, No Iterations 71
DICPCG:  Solving for p, Initial residual = 6.2934785e-05, Final residual = 6.1786613e-07, No Iterations 62
DICPCG:  Solving for p, Initial residual = 6.1778676e-07, Final residual = 8.5324791e-09, No Iterations 64
time step continuity errors : sum local = 9.0016003e-11, global = 3.6720004e-12, cumulative = -4.2694453e-12
DILUPBiCGStab:  Solving for epsilon, Initial residual = 0.014945206, Final residual = 1.8607462e-19, No Iterations 3
DILUPBiCGStab:  Solving for k, Initial residual = 0.030672114, Final residual = 1.8218254e-16, No Iterations 3
ExecutionTime = 0.28705 s  ClockTime = 0 s



volFieldValue mindomain_scalar write:
    min() of p = -4.011766e-06 at location (1.9686737 0.0004006648 0.5) in cell 99
    min() of k = 2.7452492e-06 at location (1.9686737 0.91041837 0.5) in cell 7479
    min() of epsilon = 4.6810785e-05 at location (1.9686737 0.91041837 0.5) in cell 7479
    min() of nut = 1.4489725e-08 at location (1.9686737 0.91041837 0.5) in cell 7479

volFieldValue mindomain_vector write:
    minMag() of U = 0.48895234 at location (1.9686737 0.0004006648 0.5) in cell 99

volFieldValue maxdomain_scalar write:
    max() of p = 0.0049279182 at location (0.0047470663 0.0004006648 0.5) in cell 1
    max() of k = 0.0045060616 at location (0.46168579 0.0004006648 0.5) in cell 56
    max() of epsilon = 0.27929048 at location (0.57390086 0.0004006648 0.5) in cell 62
    max() of nut = 6.8956182e-06 at location (0.25603587 0.0004006648 0.5) in cell 41

volFieldValue maxdomain_vector write:
    maxMag() of U = 1.000991 at location (1.9069548 0.015935632 0.5) in cell 1598

yPlus yplus_stats write:
    patch bottom y+ : min = 5.2214521, max = 73.656382, average = 63.239222

Time = 10s

DILUPBiCGStab:  Solving for Ux, Initial residual = 0.0066856563, Final residual = 7.4041085e-10, No Iterations 3
DILUPBiCGStab:  Solving for Uy, Initial residual = 0.061995318, Final residual = 2.4661842e-11, No Iterations 3
DICPCG:  Solving for p, Initial residual = 0.0084196125, Final residual = 8.1280192e-05, No Iterations 62
DICPCG:  Solving for p, Initial residual = 8.1448252e-05, Final residual = 7.1671549e-07, No Iterations 66
DICPCG:  Solving for p, Initial residual = 7.1705406e-07, Final residual = 9.8114842e-09, No Iterations 65
time step continuity errors : sum local = 1.0339076e-10, global = 3.0447251e-12, cumulative = -1.2247202e-12
DILUPBiCGStab:  Solving for epsilon, Initial residual = 0.010855261, Final residual = 2.4402398e-18, No Iterations 3
DILUPBiCGStab:  Solving for k, Initial residual = 0.024924666, Final residual = 5.9377752e-16, No Iterations 3
ExecutionTime = 0.310348 s  ClockTime = 0 s



volFieldValue mindomain_scalar write:
    min() of p = -1.1988027e-05 at location (1.9686737 0.0004006648 0.5) in cell 99
    min() of k = 2.0208828e-06 at location (1.9686737 0.91041837 0.5) in cell 7479
    min() of epsilon = 2.8137289e-05 at location (1.9686737 0.91041837 0.5) in cell 7479
    min() of nut = 1.3062988e-08 at location (1.9686737 0.91041837 0.5) in cell 7479

volFieldValue mindomain_vector write:
    minMag() of U = 0.46807608 at location (1.9686737 0.0004006648 0.5) in cell 99

volFieldValue maxdomain_scalar write:
    max() of p = 0.0050249728 at location (0.0047470663 0.0004006648 0.5) in cell 1
    max() of k = 0.0047021878 at location (0.38254356 0.0004006648 0.5) in cell 51
    max() of epsilon = 0.30256071 at location (0.46168579 0.0004006648 0.5) in cell 56
    max() of nut = 6.8805841e-06 at location (0.21522326 0.0004006648 0.5) in cell 37

volFieldValue maxdomain_vector write:
    maxMag() of U = 1.0010873 at location (1.9069548 0.017269069 0.5) in cell 1698

yPlus yplus_stats write:
    patch bottom y+ : min = 4.7125819, max = 75.242255, average = 64.708022

Time = 11s

DILUPBiCGStab:  Solving for Ux, Initial residual = 0.0056641065, Final residual = 6.7835898e-09, No Iterations 3
DILUPBiCGStab:  Solving for Uy, Initial residual = 0.053458874, Final residual = 1.8648509e-11, No Iterations 3
DICPCG:  Solving for p, Initial residual = 0.0084095519, Final residual = 6.6524836e-05, No Iterations 71
DICPCG:  Solving for p, Initial residual = 6.6954232e-05, Final residual = 5.7393308e-07, No Iterations 65
DICPCG:  Solving for p, Initial residual = 5.7402496e-07, Final residual = 9.9914643e-09, No Iterations 69
time step continuity errors : sum local = 1.0506594e-10, global = 2.6896525e-12, cumulative = 1.4649322e-12
DILUPBiCGStab:  Solving for epsilon, Initial residual = 0.0082584746, Final residual = 9.4563107e-17, No Iterations 3
DILUPBiCGStab:  Solving for k, Initial residual = 0.020849357, Final residual = 1.9396218e-15, No Iterations 3
ExecutionTime = 0.33356 s  ClockTime = 0 s



volFieldValue mindomain_scalar write:
    min() of p = -1.9092083e-05 at location (1.9686737 0.0004006648 0.5) in cell 99
    min() of k = 1.5426178e-06 at location (1.9686737 0.91041837 0.5) in cell 7479
    min() of epsilon = 1.7440859e-05 at location (1.9686737 0.91041837 0.5) in cell 7479
    min() of nut = 1.2279801e-08 at location (1.9686737 0.91041837 0.5) in cell 7479

volFieldValue mindomain_vector write:
    minMag() of U = 0.45321093 at location (1.9686737 0.0004006648 0.5) in cell 99

volFieldValue maxdomain_scalar write:
    max() of p = 0.0051560625 at location (0.01847776 0.0004006648 0.5) in cell 5
    max() of k = 0.004869197 at location (0.31451368 0.0004006648 0.5) in cell 46
    max() of epsilon = 0.32252753 at location (0.38254356 0.0004006648 0.5) in cell 51
    max() of nut = 7.2507945e-06 at location (1.9686737 0.001215373 0.5) in cell 199

volFieldValue maxdomain_vector write:
    maxMag() of U = 1.0011796 at location (1.9069548 0.017269069 0.5) in cell 1698

yPlus yplus_stats write:
    patch bottom y+ : min = 4.2365917, max = 76.566799, average = 65.711138

Time = 12s

DILUPBiCGStab:  Solving for Ux, Initial residual = 0.0048724535, Final residual = 1.5334891e-09, No Iterations 3
DILUPBiCGStab:  Solving for Uy, Initial residual = 0.046634253, Final residual = 2.2032407e-11, No Iterations 3
DICPCG:  Solving for p, Initial residual = 0.0083750659, Final residual = 6.7334071e-05, No Iterations 73
DICPCG:  Solving for p, Initial residual = 6.7755535e-05, Final residual = 5.9218614e-07, No Iterations 67
DICPCG:  Solving for p, Initial residual = 5.9226024e-07, Final residual = 9.7083969e-09, No Iterations 71
time step continuity errors : sum local = 1.0194735e-10, global = 7.1117822e-12, cumulative = 8.5767145e-12
DILUPBiCGStab:  Solving for epsilon, Initial residual = 0.0066372074, Final residual = 2.2837441e-16, No Iterations 3
DILUPBiCGStab:  Solving for k, Initial residual = 0.01783495, Final residual = 5.5714688e-15, No Iterations 3
ExecutionTime = 0.357304 s  ClockTime = 0 s



volFieldValue mindomain_scalar write:
    min() of p = -2.5398409e-05 at location (1.9686737 0.0004006648 0.5) in cell 99
    min() of k = 1.221292e-06 at location (1.9686737 0.91041837 0.5) in cell 7479
    min() of epsilon = 1.1196295e-05 at location (1.9686737 0.91041837 0.5) in cell 7479
    min() of nut = 1.198967e-08 at location (1.9686737 0.91041837 0.5) in cell 7479

volFieldValue mindomain_vector write:
    minMag() of U = 0.44196074 at location (1.9686737 0.0004006648 0.5) in cell 99

volFieldValue maxdomain_scalar write:
    max() of p = 0.0053142105 at location (0.01847776 0.0004006648 0.5) in cell 5
    max() of k = 0.0050138238 at location (0.26703454 0.0004006648 0.5) in cell 42
    max() of epsilon = 0.33986219 at location (0.31451368 0.0004006648 0.5) in cell 46
    max() of nut = 8.0056613e-06 at location (1.6779355 0.001215373 0.5) in cell 194

volFieldValue maxdomain_vector write:
    maxMag() of U = 1.0012703 at location (1.9069548 0.017269069 0.5) in cell 1698

yPlus yplus_stats write:
    patch bottom y+ : min = 3.7953808, max = 77.695587, average = 66.421063

Time = 13s

DILUPBiCGStab:  Solving for Ux, Initial residual = 0.0042510222, Final residual = 3.0590211e-09, No Iterations 3
DILUPBiCGStab:  Solving for Uy, Initial residual = 0.041176783, Final residual = 2.7081384e-11, No Iterations 3
DICPCG:  Solving for p, Initial residual = 0.0085853143, Final residual = 7.1272234e-05, No Iterations 73
DICPCG:  Solving for p, Initial residual = 7.1537535e-05, Final residual = 7.0681697e-07, No Iterations 69
DICPCG:  Solving for p, Initial residual = 7.0694284e-07, Final residual = 7.5166005e-09, No Iterations 76
time step continuity errors : sum local = 7.8959131e-11, global = 1.634764e-12, cumulative = 1.0211478e-11
DILUPBiCGStab:  Solving for epsilon, Initial residual = 0.0056456178, Final residual = 9.1444371e-16, No Iterations 3
DILUPBiCGStab:  Solving for k, Initial residual = 0.015516749, Final residual = 1.3334357e-14, No Iterations 3
ExecutionTime = 0.382648 s  ClockTime = 0 s



volFieldValue mindomain_scalar write:
    min() of p = -3.0896215e-05 at location (1.9686737 0.0004006648 0.5) in cell 99
    min() of k = 1.0016604e-06 at location (1.9686737 0.91041837 0.5) in cell 7479
    min() of epsilon = 7.4702198e-06 at location (1.9686737 0.91041837 0.5) in cell 7479
    min() of nut = 1.1550273e-08 at location (1.9686737 0.0038263852 0.5) in cell 499

volFieldValue mindomain_vector write:
    minMag() of U = 0.43309933 at location (1.9686737 0.0004006648 0.5) in cell 99

volFieldValue maxdomain_scalar write:
    max() of p = 0.0054424621 at location (0.01847776 0.0004006648 0.5) in cell 5
    max() of k = 0.0051416359 at location (0.23501226 0.0004006648 0.5) in cell 39
    max() of epsilon = 0.35511616 at location (0.26703454 0.0004006648 0.5) in cell 42
    max() of nut = 8.6735136e-06 at location (1.4280198 0.001215373 0.5) in cell 189

volFieldValue maxdomain_vector write:
    maxMag() of U = 1.0013604 at location (1.9069548 0.021542526 0.5) in cell 1998

yPlus yplus_stats write:
    patch bottom y+ : min = 3.4438795, max = 78.679661, average = 66.856026

Time = 14s

DILUPBiCGStab:  Solving for Ux, Initial residual = 0.0037536607, Final residual = 2.268848e-10, No Iterations 3
DILUPBiCGStab:  Solving for Uy, Initial residual = 0.036801715, Final residual = 2.6878775e-11, No Iterations 3
DICPCG:  Solving for p, Initial residual = 0.0091694953, Final residual = 9.1036319e-05, No Iterations 49
DICPCG:  Solving for p, Initial residual = 9.0846109e-05, Final residual = 8.9339703e-07, No Iterations 67
DICPCG:  Solving for p, Initial residual = 8.9588939e-07, Final residual = 8.5407266e-09, No Iterations 31
time step continuity errors : sum local = 8.9931794e-11, global = 2.72305e-12, cumulative = 1.2934528e-11
DILUPBiCGStab:  Solving for epsilon, Initial residual = 0.0049099389, Final residual = 3.4913932e-15, No Iterations 3
DILUPBiCGStab:  Solving for k, Initial residual = 0.013715022, Final residual = 2.53445e-14, No Iterations 3
ExecutionTime = 0.402065 s  ClockTime = 0 s



volFieldValue mindomain_scalar write:
    min() of p = -3.5730089e-05 at location (1.9686737 0.0004006648 0.5) in cell 99
    min() of k = 8.4904542e-07 at location (1.9686737 0.91041837 0.5) in cell 7479
    min() of epsilon = 5.1913272e-06 at location (1.9686737 0.91041837 0.5) in cell 7479
    min() of nut = 1.1563203e-08 at location (1.9686737 0.0038263852 0.5) in cell 499

volFieldValue mindomain_vector write:
    minMag() of U = 0.42624158 at location (1.9686737 0.0004006648 0.5) in cell 99

volFieldValue maxdomain_scalar write:
    max() of p = 0.0055618896 at location (0.022178072 0.0004006648 0.5) in cell 6
    max() of k = 0.0052590358 at location (0.19659637 0.0004006648 0.5) in cell 35
    max() of epsilon = 0.36878124 at location (0.23501226 0.0004006648 0.5) in cell 39
    max() of nut = 9.2629861e-06 at location (1.2535996 0.001215373 0.5) in cell 185

volFieldValue maxdomain_vector write:
    maxMag() of U = 1.0014509 at location (1.9069548 0.024634616 0.5) in cell 2198

yPlus yplus_stats write:
    patch bottom y+ : min = 3.2792283, max = 79.572844, average = 67.153127

Time = 15s

DILUPBiCGStab:  Solving for Ux, Initial residual = 0.0033494924, Final residual = 5.2488416e-09, No Iterations 3
DILUPBiCGStab:  Solving for Uy, Initial residual = 0.033242343, Final residual = 2.7246941e-11, No Iterations 3
DICPCG:  Solving for p, Initial residual = 0.010054144, Final residual = 9.870765e-05, No Iterations 44
DICPCG:  Solving for p, Initial residual = 9.8360692e-05, Final residual = 8.210852e-07, No Iterations 71
DICPCG:  Solving for p, Initial residual = 8.2217712e-07, Final residual = 8.5137438e-09, No Iterations 37
time step continuity errors : sum local = 9.0017521e-11, global = -3.8239698e-12, cumulative = 9.1105587e-12
DILUPBiCGStab:  Solving for epsilon, Initial residual = 0.0042693234, Final residual = 1.739543e-14, No Iterations 3
DILUPBiCGStab:  Solving for k, Initial residual = 0.012279844, Final residual = 3.863226e-14, No Iterations 3
ExecutionTime = 0.421921 s  ClockTime = 0 s



volFieldValue mindomain_scalar write:
    min() of p = -4.0507899e-05 at location (1.9686737 0.0004006648 0.5) in cell 99
    min() of k = 7.4139858e-07 at location (1.9686737 0.91041837 0.5) in cell 7479
    min() of epsilon = 3.7591468e-06 at location (1.9686737 0.91041837 0.5) in cell 7479
    min() of nut = 1.2540975e-08 at location (1.9686737 0.0047554818 0.5) in cell 599

volFieldValue mindomain_vector write:
    minMag() of U = 0.42115315 at location (1.9686737 0.0004006648 0.5) in cell 99

volFieldValue maxdomain_scalar write:
    max() of p = 0.0056676014 at location (0.022178072 0.0004006648 0.5) in cell 6
    max() of k = 0.0053726119 at location (0.1706868 0.0004006648 0.5) in cell 32
    max() of epsilon = 0.38148374 at location (0.19659637 0.0004006648 0.5) in cell 35
    max() of nut = 9.7865204e-06 at location (1.135962 0.001215373 0.5) in cell 182

volFieldValue maxdomain_vector write:
    maxMag() of U = 1.001541 at location (1.9069548 0.02793665 0.5) in cell 2398

yPlus yplus_stats write:
    patch bottom y+ : min = 3.4254958, max = 80.427497, average = 67.317843

Time = 16s

DILUPBiCGStab:  Solving for Ux, Initial residual = 0.003019145, Final residual = 6.9236615e-09, No Iterations 3
DILUPBiCGStab:  Solving for Uy, Initial residual = 0.030259135, Final residual = 3.4631038e-11, No Iterations 3
DICPCG:  Solving for p, Initial residual = 0.010745857, Final residual = 9.556148e-05, No Iterations 34
DICPCG:  Solving for p, Initial residual = 9.5074089e-05, Final residual = 8.5941015e-07, No Iterations 75
DICPCG:  Solving for p, Initial residual = 8.5974508e-07, Final residual = 8.6295013e-09, No Iterations 30
time step continuity errors : sum local = 9.1847653e-11, global = 8.754439e-12, cumulative = 1.7864998e-11
DILUPBiCGStab:  Solving for epsilon, Initial residual = 0.0037205858, Final residual = 3.7837323e-15, No Iterations 3
DILUPBiCGStab:  Solving for k, Initial residual = 0.011052234, Final residual = 6.2959487e-14, No Iterations 3
ExecutionTime = 0.441645 s  ClockTime = 0 s



volFieldValue mindomain_scalar write:
    min() of p = -4.6020445e-05 at location (1.9686737 0.0004006648 0.5) in cell 99
    min() of k = 6.6451586e-07 at location (1.9686737 0.91041837 0.5) in cell 7479
    min() of epsilon = 2.8327115e-06 at location (1.9686737 0.91041837 0.5) in cell 7479
    min() of nut = 1.0177686e-08 at location (1.9686737 0.0047554818 0.5) in cell 599

volFieldValue mindomain_vector write:
    minMag() of U = 0.41732266 at location (1.9686737 0.0004006648 0.5) in cell 99

volFieldValue maxdomain_scalar write:
    max() of p = 0.0057471944 at location (0.022178072 0.0004006648 0.5) in cell 6
    max() of k = 0.005491635 at location (0.1396041 0.0004006648 0.5) in cell 28
    max() of epsilon = 0.39390822 at location (0.1706868 0.0004006648 0.5) in cell 32
    max() of nut = 1.0253728e-05 at location (1.0285332 0.001215373 0.5) in cell 179

volFieldValue maxdomain_vector write:
    maxMag() of U = 1.0016302 at location (1.9069548 0.031462883 0.5) in cell 2598

yPlus yplus_stats write:
    patch bottom y+ : min = 3.5814244, max = 81.313499, average = 67.37403

Time = 17s

DILUPBiCGStab:  Solving for Ux, Initial residual = 0.0027437788, Final residual = 1.4526573e-09, No Iterations 3
DILUPBiCGStab:  Solving for Uy, Initial residual = 0.027675945, Final residual = 4.681585e-11, No Iterations 3
DICPCG:  Solving for p, Initial residual = 0.011288793, Final residual = 9.9589934e-05, No Iterations 32
DICPCG:  Solving for p, Initial residual = 9.8970945e-05, Final residual = 9.2664373e-07, No Iterations 72
DICPCG:  Solving for p, Initial residual = 9.2687789e-07, Final residual = 9.2343162e-09, No Iterations 58
time step continuity errors : sum local = 9.9052877e-11, global = 5.7018894e-12, cumulative = 2.3566887e-11
DILUPBiCGStab:  Solving for epsilon, Initial residual = 0.0033939487, Final residual = 4.7010398e-15, No Iterations 3
DILUPBiCGStab:  Solving for k, Initial residual = 0.010025849, Final residual = 1.996295e-13, No Iterations 3
ExecutionTime = 0.463131 s  ClockTime = 0 s



volFieldValue mindomain_scalar write:
    min() of p = -5.2347632e-05 at location (1.9686737 0.0004006648 0.5) in cell 99
    min() of k = 6.0911634e-07 at location (1.9686737 0.91041837 0.5) in cell 7479
    min() of epsilon = 2.215473e-06 at location (1.9686737 0.91041837 0.5) in cell 7479
    min() of nut = 6.929181e-09 at location (1.9686737 0.0047554818 0.5) in cell 599

volFieldValue mindomain_vector write:
    minMag() of U = 0.41403728 at location (1.9686737 0.0004006648 0.5) in cell 99

volFieldValue maxdomain_scalar write:
    max() of p = 0.0058077559 at location (0.025992066 0.0004006648 0.5) in cell 7
    max() of k = 0.005628851 at location (0.11864039 0.0004006648 0.5) in cell 25
    max() of epsilon = 0.40707022 at location (0.1396041 0.0004006648 0.5) in cell 28
    max() of nut = 1.0679466e-05 at location (0.96214474 0.001215373 0.5) in cell 177

volFieldValue maxdomain_vector write:
    maxMag() of U = 1.0017185 at location (1.9069548 0.033314791 0.5) in cell 2698

yPlus yplus_stats write:
    patch bottom y+ : min = 3.6526909, max = 82.323096, average = 67.378472

Time = 18s

DILUPBiCGStab:  Solving for Ux, Initial residual = 0.0025115409, Final residual = 2.3681553e-09, No Iterations 3
DILUPBiCGStab:  Solving for Uy, Initial residual = 0.025389971, Final residual = 5.8556939e-11, No Iterations 3
DICPCG:  Solving for p, Initial residual = 0.011409651, Final residual = 0.00010708676, No Iterations 31
DICPCG:  Solving for p, Initial residual = 0.00010643325, Final residual = 9.3743355e-07, No Iterations 66
DICPCG:  Solving for p, Initial residual = 9.3800575e-07, Final residual = 9.0787838e-09, No Iterations 39
time step continuity errors : sum local = 9.8050911e-11, global = 1.4624558e-11, cumulative = 3.8191445e-11
DILUPBiCGStab:  Solving for epsilon, Initial residual = 0.0031971137, Final residual = 6.7699193e-15, No Iterations 3
DILUPBiCGStab:  Solving for k, Initial residual = 0.0091814884, Final residual = 2.3547189e-13, No Iterations 3
ExecutionTime = 0.484474 s  ClockTime = 0 s



volFieldValue mindomain_scalar write:
    min() of p = -5.8674532e-05 at location (1.9686737 0.0004006648 0.5) in cell 99
    min() of k = 5.6903944e-07 at location (1.9686737 0.91041837 0.5) in cell 7479
    min() of epsilon = 1.7921218e-06 at location (1.9686737 0.91041837 0.5) in cell 7479
    min() of nut = 5.0307724e-09 at location (1.9686737 0.0047554818 0.5) in cell 599

volFieldValue mindomain_vector write:
    minMag() of U = 0.41076362 at location (1.9686737 0.0004006648 0.5) in cell 99

volFieldValue maxdomain_scalar write:
    max() of p = 0.0058720268 at location (0.025992066 0.0004006648 0.5) in cell 7
    max() of k = 0.0057899818 at location (0.099495932 0.0004006648 0.5) in cell 22
    max() of epsilon = 0.42242194 at location (0.11864039 0.0004006648 0.5) in cell 25
    max() of nut = 1.1072552e-05 at location (0.93042715 0.001215373 0.5) in cell 176

volFieldValue maxdomain_vector write:
    maxMag() of U = 1.0018049 at location (1.9069548 0.037206184 0.5) in cell 2898

yPlus yplus_stats write:
    patch bottom y+ : min = 3.6696963, max = 83.493067, average = 67.311632

Time = 19s

DILUPBiCGStab:  Solving for Ux, Initial residual = 0.0023138708, Final residual = 1.6101166e-09, No Iterations 3
DILUPBiCGStab:  Solving for Uy, Initial residual = 0.023304418, Final residual = 6.9628706e-11, No Iterations 3
DICPCG:  Solving for p, Initial residual = 0.011178224, Final residual = 0.0001039539, No Iterations 30
DICPCG:  Solving for p, Initial residual = 0.00010338117, Final residual = 7.3888838e-07, No Iterations 67
DICPCG:  Solving for p, Initial residual = 7.3901398e-07, Final residual = 9.0768994e-09, No Iterations 60
time step continuity errors : sum local = 9.8617023e-11, global = 7.0316555e-12, cumulative = 4.5223101e-11
DILUPBiCGStab:  Solving for epsilon, Initial residual = 0.0030118758, Final residual = 9.4801245e-15, No Iterations 3
DILUPBiCGStab:  Solving for k, Initial residual = 0.00853734, Final residual = 2.5618586e-13, No Iterations 3
ExecutionTime = 0.506796 s  ClockTime = 0 s



volFieldValue mindomain_scalar write:
    min() of p = -6.3888915e-05 at location (1.9686737 0.0004006648 0.5) in cell 99
    min() of k = 5.4012381e-07 at location (1.9686737 0.91041837 0.5) in cell 7479
    min() of epsilon = 1.4936269e-06 at location (1.9686737 0.91041837 0.5) in cell 7479
    min() of nut = 4.388339e-09 at location (1.9686737 0.0047554818 0.5) in cell 599

volFieldValue mindomain_vector write:
    minMag() of U = 0.4074306 at location (1.9686737 0.0004006648 0.5) in cell 99

volFieldValue maxdomain_scalar write:
    max() of p = 0.0059028926 at location (0.025992066 0.0004006648 0.5) in cell 7
    max() of k = 0.0059677895 at location (0.087665118 0.0004006648 0.5) in cell 20
    max() of epsilon = 0.44068943 at location (0.099495932 0.0004006648 0.5) in cell 22
    max() of nut = 1.1435563e-05 at location (0.86979998 0.001215373 0.5) in cell 174

volFieldValue maxdomain_vector write:
    maxMag() of U = 1.0018935 at location (1.9069548 0.039249867 0.5) in cell 2998

yPlus yplus_stats write:
    patch bottom y+ : min = 3.6932414, max = 84.765391, average = 67.229659

Time = 20s

DILUPBiCGStab:  Solving for Ux, Initial residual = 0.0021386053, Final residual = 5.045355e-09, No Iterations 3
DILUPBiCGStab:  Solving for Uy, Initial residual = 0.021478415, Final residual = 9.1354174e-11, No Iterations 3
DICPCG:  Solving for p, Initial residual = 0.011284894, Final residual = 9.486966e-05, No Iterations 30
DICPCG:  Solving for p, Initial residual = 9.4370186e-05, Final residual = 9.0777269e-07, No Iterations 73
DICPCG:  Solving for p, Initial residual = 9.0624808e-07, Final residual = 8.5242181e-09, No Iterations 39
time step continuity errors : sum local = 9.3229711e-11, global = 1.7387404e-12, cumulative = 4.6961841e-11
DILUPBiCGStab:  Solving for epsilon, Initial residual = 0.0028303108, Final residual = 1.2460713e-14, No Iterations 3
DILUPBiCGStab:  Solving for k, Initial residual = 0.0080729857, Final residual = 3.4142095e-13, No Iterations 3
ExecutionTime = 0.526223 s  ClockTime = 0 s



volFieldValue mindomain_scalar write:
    min() of p = -6.7850426e-05 at location (1.9686737 0.0004006648 0.5) in cell 99
    min() of k = 5.1950564e-07 at location (1.9686737 0.91041837 0.5) in cell 7479
    min() of epsilon = 1.2777242e-06 at location (1.9686737 0.91041837 0.5) in cell 7479
    min() of nut = 4.3663435e-09 at location (1.9686737 0.0047554818 0.5) in cell 599

volFieldValue mindomain_vector write:
    minMag() of U = 0.40433447 at location (1.9686737 0.0004006648 0.5) in cell 99

volFieldValue maxdomain_scalar write:
    max() of p = 0.0059527838 at location (0.029923235 0.0004006648 0.5) in cell 8
    max() of k = 0.0061464095 at location (0.082012856 0.0004006648 0.5) in cell 19
    max() of epsilon = 0.46114455 at location (0.087665118 0.0004006648 0.5) in cell 20
    max() of nut = 1.1769901e-05 at location (0.81273313 0.001215373 0.5) in cell 172

volFieldValue maxdomain_vector write:
    maxMag() of U = 1.0019841 at location (1.9069548 0.04136179 0.5) in cell 3098

yPlus yplus_stats write:
    patch bottom y+ : min = 3.8458413, max = 86.024581, average = 67.086574

Time = 21s

DILUPBiCGStab:  Solving for Ux, Initial residual = 0.0019823522, Final residual = 5.0144701e-09, No Iterations 3
DILUPBiCGStab:  Solving for Uy, Initial residual = 0.019986151, Final residual = 1.0971128e-10, No Iterations 3
DICPCG:  Solving for p, Initial residual = 0.011568656, Final residual = 0.00011262624, No Iterations 32
DICPCG:  Solving for p, Initial residual = 0.00011196771, Final residual = 9.8096403e-07, No Iterations 74
DICPCG:  Solving for p, Initial residual = 9.769711e-07, Final residual = 9.9989017e-09, No Iterations 38
time step continuity errors : sum local = 1.1030577e-10, global = 5.0670578e-12, cumulative = 5.2028899e-11
DILUPBiCGStab:  Solving for epsilon, Initial residual = 0.0025264643, Final residual = 1.5895889e-14, No Iterations 3
DILUPBiCGStab:  Solving for k, Initial residual = 0.0075666448, Final residual = 4.35655e-13, No Iterations 3
ExecutionTime = 0.546874 s  ClockTime = 0 s



volFieldValue mindomain_scalar write:
    min() of p = -7.1793108e-05 at location (1.9686737 0.0004006648 0.5) in cell 99
    min() of k = 5.0517602e-07 at location (1.9686737 0.91041837 0.5) in cell 7479
    min() of epsilon = 1.1179127e-06 at location (1.9686737 0.91041837 0.5) in cell 7479
    min() of nut = 5.230806e-09 at location (1.9686737 0.0047554818 0.5) in cell 599

volFieldValue mindomain_vector write:
    minMag() of U = 0.40179618 at location (1.9686737 0.0004006648 0.5) in cell 99

volFieldValue maxdomain_scalar write:
    max() of p = 0.0059941395 at location (0.029923235 0.0004006648 0.5) in cell 8
    max() of k = 0.0063136066 at location (0.076529068 0.0004006648 0.5) in cell 18
    max() of epsilon = 0.48200226 at location (0.082012856 0.0004006648 0.5) in cell 19
    max() of nut = 1.2241083e-05 at location (-0.28438808 0.91041837 0.5) in cell 5670

volFieldValue maxdomain_vector write:
    maxMag() of U = 1.0020772 at location (1.9069548 0.04136179 0.5) in cell 3098

yPlus yplus_stats write:
    patch bottom y+ : min = 3.8740839, max = 87.186768, average = 66.959571

Time = 22s

DILUPBiCGStab:  Solving for Ux, Initial residual = 0.0018462931, Final residual = 2.8632439e-09, No Iterations 3
DILUPBiCGStab:  Solving for Uy, Initial residual = 0.018716153, Final residual = 1.5032357e-10, No Iterations 3
DICPCG:  Solving for p, Initial residual = 0.011747081, Final residual = 0.00010309378, No Iterations 63
DICPCG:  Solving for p, Initial residual = 0.00010194794, Final residual = 9.9811905e-07, No Iterations 72
DICPCG:  Solving for p, Initial residual = 9.9763137e-07, Final residual = 9.7469224e-09, No Iterations 37
time step continuity errors : sum local = 1.0849031e-10, global = -1.2252926e-11, cumulative = 3.9775973e-11
DILUPBiCGStab:  Solving for epsilon, Initial residual = 0.0021944396, Final residual = 1.9155369e-14, No Iterations 3
DILUPBiCGStab:  Solving for k, Initial residual = 0.0070373867, Final residual = 5.0811458e-13, No Iterations 3
ExecutionTime = 0.571996 s  ClockTime = 1 s



volFieldValue mindomain_scalar write:
    min() of p = -7.690371e-05 at location (1.9686737 0.0004006648 0.5) in cell 99
    min() of k = 4.9569875e-07 at location (1.9686737 0.91041837 0.5) in cell 7479
    min() of epsilon = 9.9716418e-07 at location (1.9686737 0.91041837 0.5) in cell 7479
    min() of nut = 7.1570025e-09 at location (1.9686737 0.0047554818 0.5) in cell 599

volFieldValue mindomain_vector write:
    minMag() of U = 0.39994163 at location (1.9686737 0.0004006648 0.5) in cell 99

volFieldValue maxdomain_scalar write:
    max() of p = 0.0060340257 at location (0.033975179 0.0004006648 0.5) in cell 9
    max() of k = 0.0064735286 at location (0.076529068 0.0004006648 0.5) in cell 18
    max() of epsilon = 0.50180284 at location (0.076529068 0.0004006648 0.5) in cell 18
    max() of nut = 1.2875878e-05 at location (-0.28438808 0.91041837 0.5) in cell 5670

volFieldValue maxdomain_vector write:
    maxMag() of U = 1.0021699 at location (1.9069548 0.043544233 0.5) in cell 3198

yPlus yplus_stats write:
    patch bottom y+ : min = 4.1593663, max = 88.284071, average = 66.819546

Time = 23s

DILUPBiCGStab:  Solving for Ux, Initial residual = 0.0017376054, Final residual = 5.3887433e-09, No Iterations 3
DILUPBiCGStab:  Solving for Uy, Initial residual = 0.017663953, Final residual = 2.181985e-10, No Iterations 3
DICPCG:  Solving for p, Initial residual = 0.012002092, Final residual = 0.00011796962, No Iterations 54
DICPCG:  Solving for p, Initial residual = 0.00011684543, Final residual = 1.16395e-06, No Iterations 75
DICPCG:  Solving for p, Initial residual = 1.1623821e-06, Final residual = 1.1107231e-08, No Iterations 39
time step continuity errors : sum local = 1.2459537e-10, global = -1.0891278e-11, cumulative = 2.8884695e-11
DILUPBiCGStab:  Solving for epsilon, Initial residual = 0.0020179644, Final residual = 2.263759e-14, No Iterations 3
DILUPBiCGStab:  Solving for k, Initial residual = 0.0065320629, Final residual = 5.54399e-13, No Iterations 3
ExecutionTime = 0.602296 s  ClockTime = 1 s



volFieldValue mindomain_scalar write:
    min() of p = -8.369432e-05 at location (1.9686737 0.0004006648 0.5) in cell 99
    min() of k = 4.9002791e-07 at location (1.9686737 0.91041837 0.5) in cell 7479
    min() of epsilon = 9.0426919e-07 at location (1.9686737 0.91041837 0.5) in cell 7479
    min() of nut = 6.3175193e-09 at location (1.9686737 0.0057156019 0.5) in cell 699

volFieldValue mindomain_vector write:
    minMag() of U = 0.39862336 at location (1.9686737 0.0004006648 0.5) in cell 99

volFieldValue maxdomain_scalar write:
    max() of p = 0.0060851762 at location (0.033975179 0.0004006648 0.5) in cell 9
    max() of k = 0.0066146699 at location (0.076529068 0.0004006648 0.5) in cell 18
    max() of epsilon = 0.52098887 at location (0.076529068 0.0004006648 0.5) in cell 18
    max() of nut = 1.3510635e-05 at location (-0.28438808 0.91041837 0.5) in cell 5670

volFieldValue maxdomain_vector write:
    maxMag() of U = 1.0022642 at location (1.7326183 0.012188314 0.5) in cell 1295

yPlus yplus_stats write:
    patch bottom y+ : min = 4.2959217, max = 89.241304, average = 66.651787

Time = 24s

DILUPBiCGStab:  Solving for Ux, Initial residual = 0.0016434836, Final residual = 3.0749239e-09, No Iterations 3
DILUPBiCGStab:  Solving for Uy, Initial residual = 0.016629447, Final residual = 3.0140612e-10, No Iterations 3
DICPCG:  Solving for p, Initial residual = 0.012019084, Final residual = 0.00010159339, No Iterations 32
DICPCG:  Solving for p, Initial residual = 0.00010097765, Final residual = 9.6216542e-07, No Iterations 72
DICPCG:  Solving for p, Initial residual = 9.5861896e-07, Final residual = 8.0837213e-09, No Iterations 36
time step continuity errors : sum local = 9.1426312e-11, global = 3.4958502e-12, cumulative = 3.2380545e-11
DILUPBiCGStab:  Solving for epsilon, Initial residual = 0.0019282641, Final residual = 2.6061081e-14, No Iterations 3
DILUPBiCGStab:  Solving for k, Initial residual = 0.0060939346, Final residual = 6.8754528e-13, No Iterations 3
ExecutionTime = 0.629563 s  ClockTime = 1 s



volFieldValue mindomain_scalar write:
    min() of p = -9.0972008e-05 at location (1.9686737 0.0004006648 0.5) in cell 99
    min() of k = 4.8738805e-07 at location (1.9686737 0.91041837 0.5) in cell 7479
    min() of epsilon = 8.3167383e-07 at location (1.9686737 0.91041837 0.5) in cell 7479
    min() of nut = 4.3809882e-09 at location (1.9686737 0.0057156019 0.5) in cell 699

volFieldValue mindomain_vector write:
    minMag() of U = 0.3975261 at location (1.9686737 0.0004006648 0.5) in cell 99

volFieldValue maxdomain_scalar write:
    max() of p = 0.0061040861 at location (0.033975179 0.0004006648 0.5) in cell 9
    max() of k = 0.0067390391 at location (0.076529068 0.0004006648 0.5) in cell 18
    max() of epsilon = 0.53811996 at location (0.076529068 0.0004006648 0.5) in cell 18
    max() of nut = 1.4145361e-05 at location (-0.28438808 0.91041837 0.5) in cell 5670

volFieldValue maxdomain_vector write:
    maxMag() of U = 1.002361 at location (1.7326183 0.0098875613 0.5) in cell 1095

yPlus yplus_stats write:
    patch bottom y+ : min = 4.5349956, max = 90.076355, average = 66.502141

Time = 25s

DILUPBiCGStab:  Solving for Ux, Initial residual = 0.0015591355, Final residual = 4.8245283e-09, No Iterations 3
DILUPBiCGStab:  Solving for Uy, Initial residual = 0.015628637, Final residual = 4.2205689e-10, No Iterations 3
DICPCG:  Solving for p, Initial residual = 0.011449599, Final residual = 9.8351174e-05, No Iterations 30
DICPCG:  Solving for p, Initial residual = 9.7775916e-05, Final residual = 8.8226985e-07, No Iterations 69
DICPCG:  Solving for p, Initial residual = 8.7995522e-07, Final residual = 8.2521534e-09, No Iterations 41
time step continuity errors : sum local = 9.3996198e-11, global = -4.979034e-12, cumulative = 2.7401511e-11
DILUPBiCGStab:  Solving for epsilon, Initial residual = 0.0018420252, Final residual = 3.5758725e-14, No Iterations 3
DILUPBiCGStab:  Solving for k, Initial residual = 0.0057874159, Final residual = 1.7223924e-12, No Iterations 3
ExecutionTime = 0.664141 s  ClockTime = 1 s



volFieldValue mindomain_scalar write:
    min() of p = -9.7179437e-05 at location (1.9686737 0.0004006648 0.5) in cell 99
    min() of k = 4.8719415e-07 at location (1.9686737 0.91041837 0.5) in cell 7479
    min() of epsilon = 7.741726e-07 at location (1.9686737 0.91041837 0.5) in cell 7479
    min() of nut = 3.5412988e-09 at location (1.9686737 0.0057156019 0.5) in cell 699

volFieldValue mindomain_vector write:
    minMag() of U = 0.39640329 at location (1.9686737 0.0004006648 0.5) in cell 99

volFieldValue maxdomain_scalar write:
    max() of p = 0.0061339943 at location (0.038151608 0.0004006648 0.5) in cell 10
    max() of k = 0.0068489325 at location (0.076529068 0.0004006648 0.5) in cell 18
    max() of epsilon = 0.55336769 at location (0.076529068 0.0004006648 0.5) in cell 18
    max() of nut = 1.478006e-05 at location (-0.28438808 0.91041837 0.5) in cell 5670

volFieldValue maxdomain_vector write:
    maxMag() of U = 1.0024567 at location (1.7326183 0.0098875613 0.5) in cell 1095

yPlus yplus_stats write:
    patch bottom y+ : min = 4.6848317, max = 90.807823, average = 66.325528

Time = 26s

DILUPBiCGStab:  Solving for Ux, Initial residual = 0.0014769361, Final residual = 7.6470708e-09, No Iterations 3
DILUPBiCGStab:  Solving for Uy, Initial residual = 0.014712481, Final residual = 3.3228838e-10, No Iterations 3
DICPCG:  Solving for p, Initial residual = 0.010649618, Final residual = 9.7669276e-05, No Iterations 30
DICPCG:  Solving for p, Initial residual = 9.7148397e-05, Final residual = 9.6017203e-07, No Iterations 73
DICPCG:  Solving for p, Initial residual = 9.5696986e-07, Final residual = 8.4220991e-09, No Iterations 36
time step continuity errors : sum local = 9.6565629e-11, global = 3.276136e-12, cumulative = 3.0677647e-11
DILUPBiCGStab:  Solving for epsilon, Initial residual = 0.0017632334, Final residual = 3.6698756e-14, No Iterations 3
DILUPBiCGStab:  Solving for k, Initial residual = 0.0056008294, Final residual = 1.599181e-12, No Iterations 3
ExecutionTime = 0.69453 s  ClockTime = 1 s



volFieldValue mindomain_scalar write:
    min() of p = -0.00010140944 at location (1.9686737 0.0004006648 0.5) in cell 99
    min() of k = 4.8899729e-07 at location (1.9686737 0.91041837 0.5) in cell 7479
    min() of epsilon = 7.2810202e-07 at location (1.9686737 0.91041837 0.5) in cell 7479
    min() of nut = 3.3873638e-09 at location (1.9686737 0.0057156019 0.5) in cell 699

volFieldValue mindomain_vector write:
    minMag() of U = 0.39522311 at location (1.9686737 0.0004006648 0.5) in cell 99

volFieldValue maxdomain_scalar write:
    max() of p = 0.0061586233 at location (0.038151608 0.0004006648 0.5) in cell 10
    max() of k = 0.0069462039 at location (0.076529068 0.0004006648 0.5) in cell 18
    max() of epsilon = 0.56695837 at location (0.076529068 0.0004006648 0.5) in cell 18
    max() of nut = 1.5414734e-05 at location (-0.28438808 0.91041837 0.5) in cell 5670

volFieldValue maxdomain_vector write:
    maxMag() of U = 1.0025519 at location (1.7326183 0.0098875613 0.5) in cell 1095

yPlus yplus_stats write:
    patch bottom y+ : min = 4.9661004, max = 91.450394, average = 66.172902

Time = 27s

DILUPBiCGStab:  Solving for Ux, Initial residual = 0.001398333, Final residual = 6.7920296e-10, No Iterations 3
DILUPBiCGStab:  Solving for Uy, Initial residual = 0.013912744, Final residual = 2.1694262e-10, No Iterations 3
DICPCG:  Solving for p, Initial residual = 0.010405189, Final residual = 8.6029618e-05, No Iterations 63
DICPCG:  Solving for p, Initial residual = 8.5077917e-05, Final residual = 6.7129722e-07, No Iterations 74
DICPCG:  Solving for p, Initial residual = 6.710979e-07, Final residual = 9.4796646e-09, No Iterations 49
time step continuity errors : sum local = 1.0959827e-10, global = -1.2887928e-11, cumulative = 1.778972e-11
DILUPBiCGStab:  Solving for epsilon, Initial residual = 0.0016756516, Final residual = 3.9732231e-14, No Iterations 3
DILUPBiCGStab:  Solving for k, Initial residual = 0.0054665606, Final residual = 1.1433897e-12, No Iterations 3
ExecutionTime = 0.722195 s  ClockTime = 1 s



volFieldValue mindomain_scalar write:
    min() of p = -0.00010451431 at location (1.9686737 0.0004006648 0.5) in cell 99
    min() of k = 4.9244722e-07 at location (1.9686737 0.91041837 0.5) in cell 7479
    min() of epsilon = 6.908323e-07 at location (1.9686737 0.91041837 0.5) in cell 7479
    min() of nut = 3.78759e-09 at location (1.9686737 0.0057156019 0.5) in cell 699

volFieldValue mindomain_vector write:
    minMag() of U = 0.39412022 at location (1.9686737 0.0004006648 0.5) in cell 99

volFieldValue maxdomain_scalar write:
    max() of p = 0.0061631437 at location (0.038151608 0.0004006648 0.5) in cell 10
    max() of k = 0.0070322906 at location (0.076529068 0.0004006648 0.5) in cell 18
    max() of epsilon = 0.57907942 at location (0.076529068 0.0004006648 0.5) in cell 18
    max() of nut = 1.6049386e-05 at location (-0.28438808 0.91041837 0.5) in cell 5670

volFieldValue maxdomain_vector write:
    maxMag() of U = 1.0026476 at location (1.7326183 0.0098875613 0.5) in cell 1095

yPlus yplus_stats write:
    patch bottom y+ : min = 5.5112288, max = 92.015338, average = 66.026805

Time = 28s

DILUPBiCGStab:  Solving for Ux, Initial residual = 0.001335684, Final residual = 4.4160605e-09, No Iterations 3
DILUPBiCGStab:  Solving for Uy, Initial residual = 0.01334647, Final residual = 1.9707143e-10, No Iterations 3
DICPCG:  Solving for p, Initial residual = 0.010579569, Final residual = 9.7237051e-05, No Iterations 63
DICPCG:  Solving for p, Initial residual = 9.5871126e-05, Final residual = 9.3319721e-07, No Iterations 74
DICPCG:  Solving for p, Initial residual = 9.3293599e-07, Final residual = 8.5927145e-09, No Iterations 69
time step continuity errors : sum local = 1.0034235e-10, global = 5.0120331e-13, cumulative = 1.8290923e-11
DILUPBiCGStab:  Solving for epsilon, Initial residual = 0.0014545375, Final residual = 4.3448868e-14, No Iterations 3
DILUPBiCGStab:  Solving for k, Initial residual = 0.0052071245, Final residual = 9.8764654e-13, No Iterations 3
ExecutionTime = 0.747756 s  ClockTime = 1 s



volFieldValue mindomain_scalar write:
    min() of p = -0.00010839796 at location (1.9686737 0.0004006648 0.5) in cell 99
    min() of k = 4.9726616e-07 at location (1.9686737 0.91041837 0.5) in cell 7479
    min() of epsilon = 6.604405e-07 at location (1.9686737 0.91041837 0.5) in cell 7479
    min() of nut = 5.0627341e-09 at location (1.9686737 0.0057156019 0.5) in cell 699

volFieldValue mindomain_vector write:
    minMag() of U = 0.39325274 at location (1.9686737 0.0004006648 0.5) in cell 99

volFieldValue maxdomain_scalar write:
    max() of p = 0.0062109615 at location (0.042456348 0.0004006648 0.5) in cell 11
    max() of k = 0.0071081918 at location (0.076529068 0.0004006648 0.5) in cell 18
    max() of epsilon = 0.58987781 at location (0.076529068 0.0004006648 0.5) in cell 18
    max() of nut = 1.6684016e-05 at location (-0.28438808 0.91041837 0.5) in cell 5670

volFieldValue maxdomain_vector write:
    maxMag() of U = 1.0027442 at location (1.7326183 0.011019047 0.5) in cell 1195

yPlus yplus_stats write:
    patch bottom y+ : min = 5.5565096, max = 92.510577, average = 65.855369

Time = 29s

DILUPBiCGStab:  Solving for Ux, Initial residual = 0.0012987042, Final residual = 4.9262624e-09, No Iterations 3
DILUPBiCGStab:  Solving for Uy, Initial residual = 0.012925514, Final residual = 1.941045e-10, No Iterations 3
DICPCG:  Solving for p, Initial residual = 0.010950414, Final residual = 9.3173167e-05, No Iterations 63
DICPCG:  Solving for p, Initial residual = 9.1843305e-05, Final residual = 8.1474023e-07, No Iterations 71
DICPCG:  Solving for p, Initial residual = 8.1453302e-07, Final residual = 8.3276268e-09, No Iterations 63
time step continuity errors : sum local = 9.8129207e-11, global = -1.6815965e-12, cumulative = 1.6609326e-11
DILUPBiCGStab:  Solving for epsilon, Initial residual = 0.0012337221, Final residual = 4.6114427e-14, No Iterations 3
DILUPBiCGStab:  Solving for k, Initial residual = 0.0049041308, Final residual = 1.3974296e-12, No Iterations 3
ExecutionTime = 0.771122 s  ClockTime = 1 s



volFieldValue mindomain_scalar write:
    min() of p = -0.0001142134 at location (1.9686737 0.0004006648 0.5) in cell 99
    min() of k = 5.0323033e-07 at location (1.9686737 0.91041837 0.5) in cell 7479
    min() of epsilon = 6.3549616e-07 at location (1.9686737 0.91041837 0.5) in cell 7479
    min() of nut = 7.5304767e-09 at location (1.9686737 0.0057156019 0.5) in cell 699

volFieldValue mindomain_vector write:
    minMag() of U = 0.39270191 at location (1.9686737 0.0004006648 0.5) in cell 99

volFieldValue maxdomain_scalar write:
    max() of p = 0.0062374074 at location (0.042456348 0.0004006648 0.5) in cell 11
    max() of k = 0.0071744676 at location (0.076529068 0.0004006648 0.5) in cell 18
    max() of epsilon = 0.59945357 at location (0.076529068 0.0004006648 0.5) in cell 18
    max() of nut = 1.7318626e-05 at location (-0.28438808 0.91041837 0.5) in cell 5670

volFieldValue maxdomain_vector write:
    maxMag() of U = 1.0028408 at location (1.7326183 0.011019047 0.5) in cell 1195

yPlus yplus_stats write:
    patch bottom y+ : min = 5.9414631, max = 92.940854, average = 65.705829

Time = 30s

DILUPBiCGStab:  Solving for Ux, Initial residual = 0.0012590826, Final residual = 4.3060455e-09, No Iterations 3
DILUPBiCGStab:  Solving for Uy, Initial residual = 0.012504986, Final residual = 2.262906e-10, No Iterations 3
DICPCG:  Solving for p, Initial residual = 0.01128617, Final residual = 0.00010491579, No Iterations 61
DICPCG:  Solving for p, Initial residual = 0.000103653, Final residual = 8.7278047e-07, No Iterations 71
DICPCG:  Solving for p, Initial residual = 8.725326e-07, Final residual = 8.5735922e-09, No Iterations 63
time step continuity errors : sum local = 1.0176725e-10, global = -1.7619452e-12, cumulative = 1.4847381e-11
DILUPBiCGStab:  Solving for epsilon, Initial residual = 0.001185144, Final residual = 4.3009048e-14, No Iterations 3
DILUPBiCGStab:  Solving for k, Initial residual = 0.004655714, Final residual = 1.4911106e-11, No Iterations 3
ExecutionTime = 0.794092 s  ClockTime = 1 s



volFieldValue mindomain_scalar write:
    min() of p = -0.00012164483 at location (1.9686737 0.0004006648 0.5) in cell 99
    min() of k = 5.1015672e-07 at location (1.9686737 0.91041837 0.5) in cell 7479
    min() of epsilon = 6.1491813e-07 at location (1.9686737 0.91041837 0.5) in cell 7479
    min() of nut = 5.2998699e-09 at location (1.9686737 0.0067077814 0.5) in cell 799

volFieldValue mindomain_vector write:
    minMag() of U = 0.39242787 at location (1.9686737 0.0004006648 0.5) in cell 99

volFieldValue maxdomain_scalar write:
    max() of p = 0.0062377701 at location (0.046893339 0.0004006648 0.5) in cell 12
    max() of k = 0.0072312673 at location (0.076529068 0.0004006648 0.5) in cell 18
    max() of epsilon = 0.60785691 at location (0.076529068 0.0004006648 0.5) in cell 18
    max() of nut = 1.7953214e-05 at location (-0.28438808 0.91041837 0.5) in cell 5670

volFieldValue maxdomain_vector write:
    maxMag() of U = 1.0029351 at location (1.7326183 0.011019047 0.5) in cell 1195

yPlus yplus_stats write:
    patch bottom y+ : min = 6.0517604, max = 93.308031, average = 65.530089

Time = 31s

DILUPBiCGStab:  Solving for Ux, Initial residual = 0.0012203242, Final residual = 4.7553586e-09, No Iterations 3
DILUPBiCGStab:  Solving for Uy, Initial residual = 0.012054207, Final residual = 2.5145785e-10, No Iterations 3
DICPCG:  Solving for p, Initial residual = 0.011118286, Final residual = 9.4913165e-05, No Iterations 56
DICPCG:  Solving for p, Initial residual = 9.3926783e-05, Final residual = 7.3888917e-07, No Iterations 76
DICPCG:  Solving for p, Initial residual = 7.385378e-07, Final residual = 9.6187072e-09, No Iterations 32
time step continuity errors : sum local = 1.1506401e-10, global = -2.2210166e-11, cumulative = -7.3627849e-12
DILUPBiCGStab:  Solving for epsilon, Initial residual = 0.0011522659, Final residual = 1.9220741e-13, No Iterations 3
DILUPBiCGStab:  Solving for k, Initial residual = 0.0044640497, Final residual = 2.3892616e-12, No Iterations 3
ExecutionTime = 0.814479 s  ClockTime = 1 s



volFieldValue mindomain_scalar write:
    min() of p = -0.00012903687 at location (1.9686737 0.0004006648 0.5) in cell 99
    min() of k = 5.132796e-07 at location (1.9686737 0.0077330908 0.5) in cell 899
    min() of epsilon = 5.9787723e-07 at location (1.9686737 0.91041837 0.5) in cell 7479
    min() of nut = 4.2975494e-09 at location (1.9686737 0.0067077814 0.5) in cell 799

volFieldValue mindomain_vector write:
    minMag() of U = 0.3923068 at location (1.9686737 0.0004006648 0.5) in cell 99

volFieldValue maxdomain_scalar write:
    max() of p = 0.006279224 at location (0.046893339 0.0004006648 0.5) in cell 12
    max() of k = 0.0072782726 at location (0.076529068 0.0004006648 0.5) in cell 18
    max() of epsilon = 0.6150897 at location (0.076529068 0.0004006648 0.5) in cell 18
    max() of nut = 1.858778e-05 at location (-0.28438808 0.91041837 0.5) in cell 5670

volFieldValue maxdomain_vector write:
    maxMag() of U = 1.0030259 at location (1.7326183 0.011019047 0.5) in cell 1195

yPlus yplus_stats write:
    patch bottom y+ : min = 6.3763725, max = 93.610804, average = 65.381476

Time = 32s

DILUPBiCGStab:  Solving for Ux, Initial residual = 0.0011704427, Final residual = 5.3235978e-10, No Iterations 3
DILUPBiCGStab:  Solving for Uy, Initial residual = 0.011530348, Final residual = 2.4670257e-10, No Iterations 3
DICPCG:  Solving for p, Initial residual = 0.010030477, Final residual = 9.4931802e-05, No Iterations 58
DICPCG:  Solving for p, Initial residual = 9.397456e-05, Final residual = 7.3870339e-07, No Iterations 67
DICPCG:  Solving for p, Initial residual = 7.3842956e-07, Final residual = 8.9887779e-09, No Iterations 32
time step continuity errors : sum local = 1.0830752e-10, global = -2.0930836e-11, cumulative = -2.8293621e-11
DILUPBiCGStab:  Solving for epsilon, Initial residual = 0.0011128931, Final residual = 2.3491536e-13, No Iterations 3
DILUPBiCGStab:  Solving for k, Initial residual = 0.0043789989, Final residual = 2.6504527e-12, No Iterations 3
ExecutionTime = 0.835205 s  ClockTime = 1 s



volFieldValue mindomain_scalar write:
    min() of p = -0.00013479463 at location (1.9686737 0.0004006648 0.5) in cell 99
    min() of k = 5.1893356e-07 at location (1.9686737 0.0077330908 0.5) in cell 899
    min() of epsilon = 5.8372889e-07 at location (1.9686737 0.91041837 0.5) in cell 7479
    min() of nut = 3.831728e-09 at location (1.9686737 0.0067077814 0.5) in cell 799

volFieldValue mindomain_vector write:
    minMag() of U = 0.39222628 at location (1.9686737 0.0004006648 0.5) in cell 99

volFieldValue maxdomain_scalar write:
    max() of p = 0.0062843637 at location (0.046893339 0.0004006648 0.5) in cell 12
    max() of k = 0.0073129664 at location (0.082012856 0.0004006648 0.5) in cell 19
    max() of epsilon = 0.62109683 at location (0.076529068 0.0004006648 0.5) in cell 18
    max() of nut = 1.9222323e-05 at location (-0.28438808 0.91041837 0.5) in cell 5670

volFieldValue maxdomain_vector write:
    maxMag() of U = 1.003114 at location (1.7889812 0.011019047 0.5) in cell 1196

yPlus yplus_stats write:
    patch bottom y+ : min = 6.8988407, max = 93.83365, average = 65.243301

Time = 33s

DILUPBiCGStab:  Solving for Ux, Initial residual = 0.001118002, Final residual = 6.1899937e-09, No Iterations 3
DILUPBiCGStab:  Solving for Uy, Initial residual = 0.011053878, Final residual = 2.7249121e-10, No Iterations 3
DICPCG:  Solving for p, Initial residual = 0.0090087608, Final residual = 8.3930928e-05, No Iterations 62
DICPCG:  Solving for p, Initial residual = 8.2901042e-05, Final residual = 5.4196723e-07, No Iterations 78
DICPCG:  Solving for p, Initial residual = 5.4187942e-07, Final residual = 9.5328926e-09, No Iterations 36
time step continuity errors : sum local = 1.1584725e-10, global = -1.6913422e-11, cumulative = -4.5207043e-11
DILUPBiCGStab:  Solving for epsilon, Initial residual = 0.0010646244, Final residual = 5.6711849e-14, No Iterations 3
DILUPBiCGStab:  Solving for k, Initial residual = 0.004334773, Final residual = 3.643841e-12, No Iterations 3
ExecutionTime = 0.858299 s  ClockTime = 1 s



volFieldValue mindomain_scalar write:
    min() of p = -0.00013881761 at location (1.9686737 0.0004006648 0.5) in cell 99
    min() of k = 5.3418038e-07 at location (1.9686737 0.0077330908 0.5) in cell 899
    min() of epsilon = 5.7196581e-07 at location (1.9686737 0.91041837 0.5) in cell 7479
    min() of nut = 4.1989128e-09 at location (1.9686737 0.0067077814 0.5) in cell 799

volFieldValue mindomain_vector write:
    minMag() of U = 0.39215105 at location (1.9686737 0.0004006648 0.5) in cell 99

volFieldValue maxdomain_scalar write:
    max() of p = 0.0062940927 at location (0.051466646 0.0004006648 0.5) in cell 13
    max() of k = 0.0073469393 at location (0.082012856 0.0004006648 0.5) in cell 19
    max() of epsilon = 0.62554306 at location (0.082012856 0.0004006648 0.5) in cell 19
    max() of nut = 1.9856843e-05 at location (-0.28438808 0.91041837 0.5) in cell 5670

volFieldValue maxdomain_vector write:
    maxMag() of U = 1.0032005 at location (1.7889812 0.011019047 0.5) in cell 1196

yPlus yplus_stats write:
    patch bottom y+ : min = 6.9530491, max = 94.051352, average = 65.07843

Time = 34s

DILUPBiCGStab:  Solving for Ux, Initial residual = 0.0010762384, Final residual = 8.2783597e-09, No Iterations 3
DILUPBiCGStab:  Solving for Uy, Initial residual = 0.010736868, Final residual = 3.1266255e-10, No Iterations 3
DICPCG:  Solving for p, Initial residual = 0.0091044163, Final residual = 6.8104395e-05, No Iterations 63
DICPCG:  Solving for p, Initial residual = 6.7046602e-05, Final residual = 6.2087345e-07, No Iterations 69
DICPCG:  Solving for p, Initial residual = 6.2081601e-07, Final residual = 8.4146523e-09, No Iterations 62
time step continuity errors : sum local = 1.0334604e-10, global = 5.611485e-12, cumulative = -3.9595558e-11
DILUPBiCGStab:  Solving for epsilon, Initial residual = 0.00095975578, Final residual = 8.280021e-14, No Iterations 3
DILUPBiCGStab:  Solving for k, Initial residual = 0.0042321284, Final residual = 5.8192823e-12, No Iterations 3
ExecutionTime = 0.881856 s  ClockTime = 1 s



volFieldValue mindomain_scalar write:
    min() of p = -0.00014254596 at location (1.9686737 0.0004006648 0.5) in cell 99
    min() of k = 5.4478369e-07 at location (1.9686737 0.91041837 0.5) in cell 7479
    min() of epsilon = 5.6218401e-07 at location (1.9686737 0.91041837 0.5) in cell 7479
    min() of nut = 5.2390718e-09 at location (1.9686737 0.0067077814 0.5) in cell 799

volFieldValue mindomain_vector write:
    minMag() of U = 0.39211675 at location (1.9686737 0.0004006648 0.5) in cell 99

volFieldValue maxdomain_scalar write:
    max() of p = 0.0063383009 at location (0.051466646 0.0004006648 0.5) in cell 13
    max() of k = 0.0073754573 at location (0.082012856 0.0004006648 0.5) in cell 19
    max() of epsilon = 0.62990712 at location (0.082012856 0.0004006648 0.5) in cell 19
    max() of nut = 2.0491336e-05 at location (-0.28438808 0.91041837 0.5) in cell 5670

volFieldValue maxdomain_vector write:
    maxMag() of U = 1.0032854 at location (1.7889812 0.011019047 0.5) in cell 1196

yPlus yplus_stats write:
    patch bottom y+ : min = 7.291357, max = 94.233711, average = 64.93714

Time = 35s

DILUPBiCGStab:  Solving for Ux, Initial residual = 0.0010741069, Final residual = 2.4044666e-09, No Iterations 3
DILUPBiCGStab:  Solving for Uy, Initial residual = 0.010494812, Final residual = 3.1766468e-10, No Iterations 3
DICPCG:  Solving for p, Initial residual = 0.009563466, Final residual = 9.2695413e-05, No Iterations 62
DICPCG:  Solving for p, Initial residual = 9.117248e-05, Final residual = 8.4984458e-07, No Iterations 69
DICPCG:  Solving for p, Initial residual = 8.4975429e-07, Final residual = 9.8757046e-09, No Iterations 64
time step continuity errors : sum local = 1.2253542e-10, global = 3.6143934e-12, cumulative = -3.5981164e-11
DILUPBiCGStab:  Solving for epsilon, Initial residual = 0.00078787492, Final residual = 1.3144621e-13, No Iterations 3
DILUPBiCGStab:  Solving for k, Initial residual = 0.0040751824, Final residual = 7.780224e-12, No Iterations 3
ExecutionTime = 0.905256 s  ClockTime = 1 s



volFieldValue mindomain_scalar write:
    min() of p = -0.00014757322 at location (1.9686737 0.0004006648 0.5) in cell 99
    min() of k = 5.5070061e-07 at location (1.9686737 0.0087926364 0.5) in cell 999
    min() of epsilon = 5.5405831e-07 at location (1.9686737 0.91041837 0.5) in cell 7479
    min() of nut = 7.6323398e-09 at location (1.9686737 0.0067077814 0.5) in cell 799

volFieldValue mindomain_vector write:
    minMag() of U = 0.39218329 at location (1.9686737 0.0004006648 0.5) in cell 99

volFieldValue maxdomain_scalar write:
    max() of p = 0.0063564065 at location (0.051466646 0.0004006648 0.5) in cell 13
    max() of k = 0.0073970009 at location (0.082012856 0.0004006648 0.5) in cell 19
    max() of epsilon = 0.63357826 at location (0.082012856 0.0004006648 0.5) in cell 19
    max() of nut = 2.1125801e-05 at location (-0.28438808 0.91041837 0.5) in cell 5670

volFieldValue maxdomain_vector write:
    maxMag() of U = 1.0033673 at location (1.7889812 0.012188314 0.5) in cell 1296

yPlus yplus_stats write:
    patch bottom y+ : min = 7.73682, max = 94.371238, average = 64.803642

Time = 36s

DILUPBiCGStab:  Solving for Ux, Initial residual = 0.0010648734, Final residual = 6.3871706e-10, No Iterations 3
DILUPBiCGStab:  Solving for Uy, Initial residual = 0.010297113, Final residual = 3.2290582e-10, No Iterations 3
DICPCG:  Solving for p, Initial residual = 0.0099802567, Final residual = 9.3712571e-05, No Iterations 62
DICPCG:  Solving for p, Initial residual = 9.2334806e-05, Final residual = 8.6656748e-07, No Iterations 76
DICPCG:  Solving for p, Initial residual = 8.6647802e-07, Final residual = 9.2134219e-09, No Iterations 74
time step continuity errors : sum local = 1.1527935e-10, global = 8.9948501e-13, cumulative = -3.5081679e-11
DILUPBiCGStab:  Solving for epsilon, Initial residual = 0.00073137795, Final residual = 1.4001288e-13, No Iterations 3
DILUPBiCGStab:  Solving for k, Initial residual = 0.0039323362, Final residual = 6.7392734e-12, No Iterations 3
ExecutionTime = 0.929898 s  ClockTime = 1 s



volFieldValue mindomain_scalar write:
    min() of p = -0.00015425267 at location (1.9686737 0.0004006648 0.5) in cell 99
    min() of k = 5.5477389e-07 at location (1.9686737 0.0087926364 0.5) in cell 999
    min() of epsilon = 5.4732429e-07 at location (1.9686737 0.91041837 0.5) in cell 7479
    min() of nut = 6.7009669e-09 at location (1.9686737 0.0077330908 0.5) in cell 899

volFieldValue mindomain_vector write:
    minMag() of U = 0.39238868 at location (1.9686737 0.0004006648 0.5) in cell 99

volFieldValue maxdomain_scalar write:
    max() of p = 0.0063810637 at location (0.056180455 0.0004006648 0.5) in cell 14
    max() of k = 0.0074097801 at location (0.082012856 0.0004006648 0.5) in cell 19
    max() of epsilon = 0.63635629 at location (0.082012856 0.0004006648 0.5) in cell 19
    max() of nut = 2.1760235e-05 at location (-0.28438808 0.91041837 0.5) in cell 5670

volFieldValue maxdomain_vector write:
    maxMag() of U = 1.0034453 at location (1.7889812 0.012188314 0.5) in cell 1296

yPlus yplus_stats write:
    patch bottom y+ : min = 7.7880362, max = 94.452722, average = 64.641068

Time = 37s

DILUPBiCGStab:  Solving for Ux, Initial residual = 0.0010393521, Final residual = 9.4020338e-09, No Iterations 3
DILUPBiCGStab:  Solving for Uy, Initial residual = 0.010043497, Final residual = 3.4398213e-10, No Iterations 3
DICPCG:  Solving for p, Initial residual = 0.0099230755, Final residual = 8.6506726e-05, No Iterations 61
DICPCG:  Solving for p, Initial residual = 8.5355617e-05, Final residual = 8.4681269e-07, No Iterations 76
DICPCG:  Solving for p, Initial residual = 8.4668031e-07, Final residual = 9.3838303e-09, No Iterations 73
time step continuity errors : sum local = 1.1849275e-10, global = 5.2117128e-12, cumulative = -2.9869966e-11
DILUPBiCGStab:  Solving for epsilon, Initial residual = 0.00074043806, Final residual = 1.379897e-13, No Iterations 3
DILUPBiCGStab:  Solving for k, Initial residual = 0.0038111274, Final residual = 6.5600845e-12, No Iterations 3
ExecutionTime = 0.954607 s  ClockTime = 1 s



volFieldValue mindomain_scalar write:
    min() of p = -0.00016184053 at location (1.9686737 0.0004006648 0.5) in cell 99
    min() of k = 5.613349e-07 at location (1.9686737 0.0087926364 0.5) in cell 999
    min() of epsilon = 5.4176495e-07 at location (1.9686737 0.91041837 0.5) in cell 7479
    min() of nut = 5.7030562e-09 at location (1.9686737 0.0077330908 0.5) in cell 899

volFieldValue mindomain_vector write:
    minMag() of U = 0.39272597 at location (1.9686737 0.0004006648 0.5) in cell 99

volFieldValue maxdomain_scalar write:
    max() of p = 0.0064162639 at location (0.056180455 0.0004006648 0.5) in cell 14
    max() of k = 0.0074277589 at location (0.087665118 0.0004006648 0.5) in cell 20
    max() of epsilon = 0.63800608 at location (0.082012856 0.0004006648 0.5) in cell 19
    max() of nut = 2.2394636e-05 at location (-0.28438808 0.91041837 0.5) in cell 5670

volFieldValue maxdomain_vector write:
    maxMag() of U = 1.0035181 at location (1.7889812 0.012188314 0.5) in cell 1296

yPlus yplus_stats write:
    patch bottom y+ : min = 8.0775076, max = 94.567241, average = 64.505949

Time = 38s

DILUPBiCGStab:  Solving for Ux, Initial residual = 0.001002782, Final residual = 1.2175761e-09, No Iterations 3
DILUPBiCGStab:  Solving for Uy, Initial residual = 0.0096796977, Final residual = 3.8042637e-10, No Iterations 3
DICPCG:  Solving for p, Initial residual = 0.0089704742, Final residual = 8.1020278e-05, No Iterations 61
DICPCG:  Solving for p, Initial residual = 7.9970222e-05, Final residual = 6.5480797e-07, No Iterations 78
DICPCG:  Solving for p, Initial residual = 6.5469605e-07, Final residual = 9.5019236e-09, No Iterations 38
time step continuity errors : sum local = 1.2105426e-10, global = -2.0342137e-11, cumulative = -5.0212103e-11
DILUPBiCGStab:  Solving for epsilon, Initial residual = 0.00073456959, Final residual = 1.4692096e-13, No Iterations 3
DILUPBiCGStab:  Solving for k, Initial residual = 0.0037453485, Final residual = 7.4371997e-12, No Iterations 3
ExecutionTime = 0.977199 s  ClockTime = 1 s



volFieldValue mindomain_scalar write:
    min() of p = -0.00016872039 at location (1.9686737 0.0004006648 0.5) in cell 99
    min() of k = 5.7381143e-07 at location (1.9686737 0.0087926364 0.5) in cell 999
    min() of epsilon = 5.3720077e-07 at location (1.9686737 0.91041837 0.5) in cell 7479
[...]
DILUPBiCGStab:  Solving for epsilon, Initial residual = 5.4430118e-08, Final residual = 2.8983103e-16, No Iterations 3
DILUPBiCGStab:  Solving for k, Initial residual = 1.1667335e-06, Final residual = 3.8488457e-15, No Iterations 3
ExecutionTime = 34.219986 s  ClockTime = 34 s



volFieldValue mindomain_scalar write:
    min() of p = -0.00047116633 at location (1.9686737 0.0004006648 0.5) in cell 99
    min() of k = 0.0001382254 at location (1.9686737 0.050538621 0.5) in cell 3499
    min() of epsilon = 1.8132746e-06 at location (-0.065986977 0.91041837 0.5) in cell 5674
    min() of nut = 9.4127598e-07 at location (0.099495932 0.0020572852 0.5) in cell 222

volFieldValue mindomain_vector write:
    minMag() of U = 0.55711434 at location (1.9686737 0.0004006648 0.5) in cell 99

volFieldValue maxdomain_scalar write:
    max() of p = 0.0060732126 at location (0.0047470663 0.0004006648 0.5) in cell 1
    max() of k = 0.0072081317 at location (0.071208734 0.0004006648 0.5) in cell 17
    max() of epsilon = 0.61214012 at location (0.071208734 0.0004006648 0.5) in cell 17
    max() of nut = 0.0011127345 at location (-0.28438808 0.91041837 0.5) in cell 5670

volFieldValue maxdomain_vector write:
    maxMag() of U = 1.0035009 at location (1.9686737 0.15770312 0.5) in cell 6379

yPlus yplus_stats write:
    patch bottom y+ : min = 15.394622, max = 93.158648, average = 75.245585

Time = 1992s

DILUPBiCGStab:  Solving for Ux, Initial residual = 2.0246661e-07, Final residual = 2.2268562e-13, No Iterations 3
DILUPBiCGStab:  Solving for Uy, Initial residual = 3.1411251e-06, Final residual = 1.8365638e-12, No Iterations 3
DICPCG:  Solving for p, Initial residual = 3.1480142e-06, Final residual = 2.9807157e-08, No Iterations 63
DICPCG:  Solving for p, Initial residual = 2.980752e-08, Final residual = 9.1983027e-09, No Iterations 13
DICPCG:  Solving for p, Initial residual = 9.1983027e-09, Final residual = 4.7772915e-09, No Iterations 3
time step continuity errors : sum local = 4.7819107e-11, global = -1.5663449e-13, cumulative = 4.2937964e-09
DILUPBiCGStab:  Solving for epsilon, Initial residual = 5.4378111e-08, Final residual = 2.8957036e-16, No Iterations 3
DILUPBiCGStab:  Solving for k, Initial residual = 1.1655845e-06, Final residual = 3.8452802e-15, No Iterations 3
ExecutionTime = 34.239368 s  ClockTime = 34 s



volFieldValue mindomain_scalar write:
    min() of p = -0.00047118297 at location (1.9686737 0.0004006648 0.5) in cell 99
    min() of k = 0.00013822911 at location (1.9686737 0.050538621 0.5) in cell 3499
    min() of epsilon = 1.812373e-06 at location (-0.065986977 0.91041837 0.5) in cell 5674
    min() of nut = 9.4128181e-07 at location (0.099495932 0.0020572852 0.5) in cell 222

volFieldValue mindomain_vector write:
    minMag() of U = 0.55711436 at location (1.9686737 0.0004006648 0.5) in cell 99

volFieldValue maxdomain_scalar write:
    max() of p = 0.0060731779 at location (0.0047470663 0.0004006648 0.5) in cell 1
    max() of k = 0.0072081324 at location (0.071208734 0.0004006648 0.5) in cell 17
    max() of epsilon = 0.61214021 at location (0.071208734 0.0004006648 0.5) in cell 17
    max() of nut = 0.0011132901 at location (-0.28438808 0.91041837 0.5) in cell 5670

volFieldValue maxdomain_vector write:
    maxMag() of U = 1.0035009 at location (1.9686737 0.15770312 0.5) in cell 6379

yPlus yplus_stats write:
    patch bottom y+ : min = 15.394664, max = 93.158652, average = 75.245595

Time = 1993s

DILUPBiCGStab:  Solving for Ux, Initial residual = 2.0242214e-07, Final residual = 2.2259077e-13, No Iterations 3
DILUPBiCGStab:  Solving for Uy, Initial residual = 3.1406235e-06, Final residual = 1.8362795e-12, No Iterations 3
DICPCG:  Solving for p, Initial residual = 3.1465805e-06, Final residual = 2.9799202e-08, No Iterations 63
DICPCG:  Solving for p, Initial residual = 2.9799566e-08, Final residual = 9.1963283e-09, No Iterations 13
DICPCG:  Solving for p, Initial residual = 9.1963287e-09, Final residual = 4.7765421e-09, No Iterations 3
time step continuity errors : sum local = 4.7810107e-11, global = -1.5661684e-13, cumulative = 4.2936398e-09
DILUPBiCGStab:  Solving for epsilon, Initial residual = 5.4326186e-08, Final residual = 2.8931001e-16, No Iterations 3
DILUPBiCGStab:  Solving for k, Initial residual = 1.1644373e-06, Final residual = 3.8417201e-15, No Iterations 3
ExecutionTime = 34.255041 s  ClockTime = 34 s



volFieldValue mindomain_scalar write:
    min() of p = -0.0004711996 at location (1.9686737 0.0004006648 0.5) in cell 99
    min() of k = 0.00013823282 at location (1.9686737 0.050538621 0.5) in cell 3499
    min() of epsilon = 1.8114723e-06 at location (-0.065986977 0.91041837 0.5) in cell 5674
    min() of nut = 9.4128765e-07 at location (0.099495932 0.0020572852 0.5) in cell 222

volFieldValue mindomain_vector write:
    minMag() of U = 0.55711437 at location (1.9686737 0.0004006648 0.5) in cell 99

volFieldValue maxdomain_scalar write:
    max() of p = 0.0060731432 at location (0.0047470663 0.0004006648 0.5) in cell 1
    max() of k = 0.0072081331 at location (0.071208734 0.0004006648 0.5) in cell 17
    max() of epsilon = 0.6121403 at location (0.071208734 0.0004006648 0.5) in cell 17
    max() of nut = 0.0011138457 at location (-0.28438808 0.91041837 0.5) in cell 5670

volFieldValue maxdomain_vector write:
    maxMag() of U = 1.0035008 at location (1.9686737 0.15770312 0.5) in cell 6379

yPlus yplus_stats write:
    patch bottom y+ : min = 15.394705, max = 93.158656, average = 75.245605

Time = 1994s

DILUPBiCGStab:  Solving for Ux, Initial residual = 2.0237757e-07, Final residual = 2.2249587e-13, No Iterations 3
DILUPBiCGStab:  Solving for Uy, Initial residual = 3.1401161e-06, Final residual = 1.8359911e-12, No Iterations 3
DICPCG:  Solving for p, Initial residual = 3.1451458e-06, Final residual = 2.97913e-08, No Iterations 63
DICPCG:  Solving for p, Initial residual = 2.9791663e-08, Final residual = 9.1943687e-09, No Iterations 13
DICPCG:  Solving for p, Initial residual = 9.1943674e-09, Final residual = 4.7758014e-09, No Iterations 3
time step continuity errors : sum local = 4.780141e-11, global = -1.5635832e-13, cumulative = 4.2934835e-09
DILUPBiCGStab:  Solving for epsilon, Initial residual = 5.4274345e-08, Final residual = 2.8904998e-16, No Iterations 3
DILUPBiCGStab:  Solving for k, Initial residual = 1.1632919e-06, Final residual = 3.8381653e-15, No Iterations 3
ExecutionTime = 34.270294 s  ClockTime = 34 s



volFieldValue mindomain_scalar write:
    min() of p = -0.00047121621 at location (1.9686737 0.0004006648 0.5) in cell 99
    min() of k = 0.00013823652 at location (1.9686737 0.050538621 0.5) in cell 3499
    min() of epsilon = 1.8105726e-06 at location (-0.065986977 0.91041837 0.5) in cell 5674
    min() of nut = 9.4129347e-07 at location (0.099495932 0.0020572852 0.5) in cell 222

volFieldValue mindomain_vector write:
    minMag() of U = 0.55711439 at location (1.9686737 0.0004006648 0.5) in cell 99

volFieldValue maxdomain_scalar write:
    max() of p = 0.0060731085 at location (0.0047470663 0.0004006648 0.5) in cell 1
    max() of k = 0.0072081338 at location (0.071208734 0.0004006648 0.5) in cell 17
    max() of epsilon = 0.61214039 at location (0.071208734 0.0004006648 0.5) in cell 17
    max() of nut = 0.0011144013 at location (-0.28438808 0.91041837 0.5) in cell 5670

volFieldValue maxdomain_vector write:
    maxMag() of U = 1.0035008 at location (1.9686737 0.15770312 0.5) in cell 6379

yPlus yplus_stats write:
    patch bottom y+ : min = 15.394746, max = 93.158661, average = 75.245615

Time = 1995s

DILUPBiCGStab:  Solving for Ux, Initial residual = 2.0233292e-07, Final residual = 2.2240095e-13, No Iterations 3
DILUPBiCGStab:  Solving for Uy, Initial residual = 3.1396034e-06, Final residual = 1.8356987e-12, No Iterations 3
DICPCG:  Solving for p, Initial residual = 3.1437103e-06, Final residual = 2.9783451e-08, No Iterations 63
DICPCG:  Solving for p, Initial residual = 2.9783814e-08, Final residual = 9.1924234e-09, No Iterations 13
DICPCG:  Solving for p, Initial residual = 9.1924235e-09, Final residual = 4.7750707e-09, No Iterations 3
time step continuity errors : sum local = 4.7792628e-11, global = -1.5644823e-13, cumulative = 4.293327e-09
DILUPBiCGStab:  Solving for epsilon, Initial residual = 5.4222586e-08, Final residual = 2.8879031e-16, No Iterations 3
DILUPBiCGStab:  Solving for k, Initial residual = 1.1621482e-06, Final residual = 3.8346158e-15, No Iterations 3
ExecutionTime = 34.287172 s  ClockTime = 34 s



volFieldValue mindomain_scalar write:
    min() of p = -0.00047123282 at location (1.9686737 0.0004006648 0.5) in cell 99
    min() of k = 0.00013824022 at location (1.9686737 0.050538621 0.5) in cell 3499
    min() of epsilon = 1.8096737e-06 at location (-0.065986977 0.91041837 0.5) in cell 5674
    min() of nut = 9.4129929e-07 at location (0.099495932 0.0020572852 0.5) in cell 222

volFieldValue mindomain_vector write:
    minMag() of U = 0.55711441 at location (1.9686737 0.0004006648 0.5) in cell 99

volFieldValue maxdomain_scalar write:
    max() of p = 0.0060730739 at location (0.0047470663 0.0004006648 0.5) in cell 1
    max() of k = 0.0072081345 at location (0.071208734 0.0004006648 0.5) in cell 17
    max() of epsilon = 0.61214047 at location (0.071208734 0.0004006648 0.5) in cell 17
    max() of nut = 0.0011149569 at location (-0.28438808 0.91041837 0.5) in cell 5670

volFieldValue maxdomain_vector write:
    maxMag() of U = 1.0035007 at location (1.9686737 0.15770312 0.5) in cell 6379

yPlus yplus_stats write:
    patch bottom y+ : min = 15.394788, max = 93.158665, average = 75.245625

Time = 1996s

DILUPBiCGStab:  Solving for Ux, Initial residual = 2.0228818e-07, Final residual = 2.2230604e-13, No Iterations 3
DILUPBiCGStab:  Solving for Uy, Initial residual = 3.1390859e-06, Final residual = 1.8354025e-12, No Iterations 3
DICPCG:  Solving for p, Initial residual = 3.142274e-06, Final residual = 2.9775643e-08, No Iterations 63
DICPCG:  Solving for p, Initial residual = 2.9776006e-08, Final residual = 9.1904914e-09, No Iterations 13
DICPCG:  Solving for p, Initial residual = 9.190491e-09, Final residual = 4.7743501e-09, No Iterations 3
time step continuity errors : sum local = 4.7784085e-11, global = -1.5624755e-13, cumulative = 4.2931708e-09
DILUPBiCGStab:  Solving for epsilon, Initial residual = 5.417091e-08, Final residual = 2.8853097e-16, No Iterations 3
DILUPBiCGStab:  Solving for k, Initial residual = 1.1610062e-06, Final residual = 3.8310714e-15, No Iterations 3
ExecutionTime = 34.305361 s  ClockTime = 34 s



volFieldValue mindomain_scalar write:
    min() of p = -0.00047124942 at location (1.9686737 0.0004006648 0.5) in cell 99
    min() of k = 0.00013824392 at location (1.9686737 0.050538621 0.5) in cell 3499
    min() of epsilon = 1.8087757e-06 at location (-0.065986977 0.91041837 0.5) in cell 5674
    min() of nut = 9.4130511e-07 at location (0.099495932 0.0020572852 0.5) in cell 222

volFieldValue mindomain_vector write:
    minMag() of U = 0.55711443 at location (1.9686737 0.0004006648 0.5) in cell 99

volFieldValue maxdomain_scalar write:
    max() of p = 0.0060730392 at location (0.0047470663 0.0004006648 0.5) in cell 1
    max() of k = 0.0072081351 at location (0.071208734 0.0004006648 0.5) in cell 17
    max() of epsilon = 0.61214056 at location (0.071208734 0.0004006648 0.5) in cell 17
    max() of nut = 0.0011155125 at location (-0.28438808 0.91041837 0.5) in cell 5670

volFieldValue maxdomain_vector write:
    maxMag() of U = 1.0035007 at location (1.9686737 0.15770312 0.5) in cell 6379

yPlus yplus_stats write:
    patch bottom y+ : min = 15.394829, max = 93.15867, average = 75.245635

Time = 1997s

DILUPBiCGStab:  Solving for Ux, Initial residual = 2.0224339e-07, Final residual = 2.2221117e-13, No Iterations 3
DILUPBiCGStab:  Solving for Uy, Initial residual = 3.1385639e-06, Final residual = 1.8351025e-12, No Iterations 3
DICPCG:  Solving for p, Initial residual = 3.1408375e-06, Final residual = 2.9767883e-08, No Iterations 63
DICPCG:  Solving for p, Initial residual = 2.9768245e-08, Final residual = 9.1885731e-09, No Iterations 13
DICPCG:  Solving for p, Initial residual = 9.1885731e-09, Final residual = 4.7736395e-09, No Iterations 3
time step continuity errors : sum local = 4.7775289e-11, global = -1.5617484e-13, cumulative = 4.2930146e-09
DILUPBiCGStab:  Solving for epsilon, Initial residual = 5.4119316e-08, Final residual = 2.8827201e-16, No Iterations 3
DILUPBiCGStab:  Solving for k, Initial residual = 1.159866e-06, Final residual = 3.8275325e-15, No Iterations 3
ExecutionTime = 34.321617 s  ClockTime = 34 s



volFieldValue mindomain_scalar write:
    min() of p = -0.000471266 at location (1.9686737 0.0004006648 0.5) in cell 99
    min() of k = 0.00013824762 at location (1.9686737 0.050538621 0.5) in cell 3499
    min() of epsilon = 1.8078786e-06 at location (-0.065986977 0.91041837 0.5) in cell 5674
    min() of nut = 9.4131092e-07 at location (0.099495932 0.0020572852 0.5) in cell 222

volFieldValue mindomain_vector write:
    minMag() of U = 0.55711444 at location (1.9686737 0.0004006648 0.5) in cell 99

volFieldValue maxdomain_scalar write:
    max() of p = 0.0060730045 at location (0.0047470663 0.0004006648 0.5) in cell 1
    max() of k = 0.0072081358 at location (0.071208734 0.0004006648 0.5) in cell 17
    max() of epsilon = 0.61214065 at location (0.071208734 0.0004006648 0.5) in cell 17
    max() of nut = 0.0011160681 at location (-0.28438808 0.91041837 0.5) in cell 5670

volFieldValue maxdomain_vector write:
    maxMag() of U = 1.0035006 at location (1.9686737 0.15770312 0.5) in cell 6379

yPlus yplus_stats write:
    patch bottom y+ : min = 15.39487, max = 93.158674, average = 75.245644

Time = 1998s

DILUPBiCGStab:  Solving for Ux, Initial residual = 2.0219854e-07, Final residual = 2.2211635e-13, No Iterations 3
DILUPBiCGStab:  Solving for Uy, Initial residual = 3.1380379e-06, Final residual = 1.8347987e-12, No Iterations 3
DICPCG:  Solving for p, Initial residual = 3.139401e-06, Final residual = 2.9760154e-08, No Iterations 63
DICPCG:  Solving for p, Initial residual = 2.9760516e-08, Final residual = 9.1866675e-09, No Iterations 13
DICPCG:  Solving for p, Initial residual = 9.1866683e-09, Final residual = 4.7729323e-09, No Iterations 3
time step continuity errors : sum local = 4.7766694e-11, global = -1.5598839e-13, cumulative = 4.2928586e-09
DILUPBiCGStab:  Solving for epsilon, Initial residual = 5.4067805e-08, Final residual = 2.8801346e-16, No Iterations 3
DILUPBiCGStab:  Solving for k, Initial residual = 1.1587275e-06, Final residual = 3.8239988e-15, No Iterations 3
ExecutionTime = 34.33643 s  ClockTime = 34 s



volFieldValue mindomain_scalar write:
    min() of p = -0.00047128257 at location (1.9686737 0.0004006648 0.5) in cell 99
    min() of k = 0.00013825131 at location (1.9686737 0.050538621 0.5) in cell 3499
    min() of epsilon = 1.8069824e-06 at location (-0.065986977 0.91041837 0.5) in cell 5674
    min() of nut = 9.4131673e-07 at location (0.099495932 0.0020572852 0.5) in cell 222

volFieldValue mindomain_vector write:
    minMag() of U = 0.55711446 at location (1.9686737 0.0004006648 0.5) in cell 99

volFieldValue maxdomain_scalar write:
    max() of p = 0.0060729698 at location (0.0047470663 0.0004006648 0.5) in cell 1
    max() of k = 0.0072081365 at location (0.071208734 0.0004006648 0.5) in cell 17
    max() of epsilon = 0.61214074 at location (0.071208734 0.0004006648 0.5) in cell 17
    max() of nut = 0.0011166237 at location (-0.28438808 0.91041837 0.5) in cell 5670

volFieldValue maxdomain_vector write:
    maxMag() of U = 1.0035006 at location (1.9686737 0.15770312 0.5) in cell 6379

yPlus yplus_stats write:
    patch bottom y+ : min = 15.394911, max = 93.158679, average = 75.245654

Time = 1999s

DILUPBiCGStab:  Solving for Ux, Initial residual = 2.0215364e-07, Final residual = 2.2202157e-13, No Iterations 3
DILUPBiCGStab:  Solving for Uy, Initial residual = 3.1375082e-06, Final residual = 1.8344914e-12, No Iterations 3
DICPCG:  Solving for p, Initial residual = 3.1379638e-06, Final residual = 2.9752459e-08, No Iterations 63
DICPCG:  Solving for p, Initial residual = 2.9752822e-08, Final residual = 9.184774e-09, No Iterations 13
DICPCG:  Solving for p, Initial residual = 9.1847739e-09, Final residual = 4.7722329e-09, No Iterations 3
time step continuity errors : sum local = 4.7758315e-11, global = -1.5587359e-13, cumulative = 4.2927027e-09
DILUPBiCGStab:  Solving for epsilon, Initial residual = 5.4016375e-08, Final residual = 2.8775525e-16, No Iterations 3
DILUPBiCGStab:  Solving for k, Initial residual = 1.1575907e-06, Final residual = 3.8204709e-15, No Iterations 3
ExecutionTime = 34.352053 s  ClockTime = 34 s



volFieldValue mindomain_scalar write:
    min() of p = -0.00047129914 at location (1.9686737 0.0004006648 0.5) in cell 99
    min() of k = 0.00013825499 at location (1.9686737 0.050538621 0.5) in cell 3499
    min() of epsilon = 1.8060871e-06 at location (-0.065986977 0.91041837 0.5) in cell 5674
    min() of nut = 9.4132253e-07 at location (0.099495932 0.0020572852 0.5) in cell 222

volFieldValue mindomain_vector write:
    minMag() of U = 0.55711448 at location (1.9686737 0.0004006648 0.5) in cell 99

volFieldValue maxdomain_scalar write:
    max() of p = 0.0060729352 at location (0.0047470663 0.0004006648 0.5) in cell 1
    max() of k = 0.0072081372 at location (0.071208734 0.0004006648 0.5) in cell 17
    max() of epsilon = 0.61214082 at location (0.071208734 0.0004006648 0.5) in cell 17
    max() of nut = 0.0011171793 at location (-0.28438808 0.91041837 0.5) in cell 5670

volFieldValue maxdomain_vector write:
    maxMag() of U = 1.0035005 at location (1.9686737 0.15770312 0.5) in cell 6379

yPlus yplus_stats write:
    patch bottom y+ : min = 15.394952, max = 93.158683, average = 75.245664

Time = 2000s

DILUPBiCGStab:  Solving for Ux, Initial residual = 2.021087e-07, Final residual = 2.2192684e-13, No Iterations 3
DILUPBiCGStab:  Solving for Uy, Initial residual = 3.1369751e-06, Final residual = 1.8341807e-12, No Iterations 3
DICPCG:  Solving for p, Initial residual = 3.1365262e-06, Final residual = 2.9744788e-08, No Iterations 63
DICPCG:  Solving for p, Initial residual = 2.9745151e-08, Final residual = 9.1828901e-09, No Iterations 13
DICPCG:  Solving for p, Initial residual = 9.18289e-09, Final residual = 4.7715374e-09, No Iterations 3
time step continuity errors : sum local = 4.7750026e-11, global = -1.5556696e-13, cumulative = 4.2925472e-09
DILUPBiCGStab:  Solving for epsilon, Initial residual = 5.3965027e-08, Final residual = 2.8749737e-16, No Iterations 3
DILUPBiCGStab:  Solving for k, Initial residual = 1.1564557e-06, Final residual = 3.8169513e-15, No Iterations 3
ExecutionTime = 34.381975 s  ClockTime = 34 s



volFieldValue mindomain_scalar write:
    min() of p = -0.00047131569 at location (1.9686737 0.0004006648 0.5) in cell 99
    min() of k = 0.00013825868 at location (1.9686737 0.050538621 0.5) in cell 3499
    min() of epsilon = 1.8051927e-06 at location (-0.065986977 0.91041837 0.5) in cell 5674
    min() of nut = 9.4132833e-07 at location (0.099495932 0.0020572852 0.5) in cell 222

volFieldValue mindomain_vector write:
    minMag() of U = 0.5571145 at location (1.9686737 0.0004006648 0.5) in cell 99

volFieldValue maxdomain_scalar write:
    max() of p = 0.0060729005 at location (0.0047470663 0.0004006648 0.5) in cell 1
    max() of k = 0.0072081379 at location (0.071208734 0.0004006648 0.5) in cell 17
    max() of epsilon = 0.61214091 at location (0.071208734 0.0004006648 0.5) in cell 17
    max() of nut = 0.0011177349 at location (-0.28438808 0.91041837 0.5) in cell 5670

volFieldValue maxdomain_vector write:
    maxMag() of U = 1.0035005 at location (1.9686737 0.15770312 0.5) in cell 6379

yPlus yplus_stats write:
    patch bottom y+ : min = 15.394993, max = 93.158687, average = 75.245674

End

