/*---------------------------------------------------------------------------*\
  =========                 |
  \\      /  F ield         | OpenFOAM: The Open Source CFD Toolbox
   \\    /   O peration     | Website:  https://openfoam.org
    \\  /    A nd           | Version:  12
     \\/     M anipulation  |
\*---------------------------------------------------------------------------*/
Build  : 12-86e126a7bc4d
Exec   : checkMesh
Date   : Jun 15 2026
Time   : 00:49:22
Host   : "NotebookdoDan"
PID    : 135961
I/O    : uncollated
Case   : /home/danilom/OpenFOAM/danilom-12/run/GT2/RANS/KEpsilon_highRE_V1
nProcs : 1
sigFpe : Enabling floating point exception trapping (FOAM_SIGFPE).
fileModificationChecking : Monitoring run-time modified files using timeStampMaster (fileModificationSkew 10)
allowSystemOperations : Allowing user-supplied system call operations

// * * * * * * * * * * * * * * * * * * * * * * * * * * * * * * * * * * * * * //
Create time

Create polyMesh for time = 0

Time = 0s

Mesh stats
    points:           15318
    internal points:  0
    faces:            30098
    internal faces:   14782
    cells:            7480
    faces per cell:   6
    boundary patches: 6
    point zones:      0
    face zones:       0
    cell zones:       0

Overall number of cells of each type:
    hexahedra:     7480
    prisms:        0
    wedges:        0
    pyramids:      0
    tet wedges:    0
    tetrahedra:    0
    polyhedra:     0

Checking topology...
    Boundary definition OK.
    Cell to face addressing OK.
    Point usage OK.
    Upper triangular ordering OK.
    Face vertices OK.
    Number of regions: 1 (OK).

Checking patch topology for multiply connected surfaces...
    Patch               Faces    Points   Surface topology                  
    inlet               68       138      ok (non-closed singly connected)  
    top                 110      222      ok (non-closed singly connected)  
    outlet              68       138      ok (non-closed singly connected)  
    slipsurface         10       22       ok (non-closed singly connected)  
    bottom              100      202      ok (non-closed singly connected)  
    frontandback        14960    15318    ok (non-closed singly connected)  

Checking geometry...
    Overall domain bounding box (-0.33333 0 0) (2 1 1)
    Mesh has 2 geometric (non-empty/wedge) directions (1 1 0)
    Mesh has 2 solution (non-empty) directions (1 1 0)
    All edges aligned with or perpendicular to non-empty directions.
    Max cell openness = 1.6234028e-16 OK.
    Max aspect ratio = 122.15178 OK.
    Minimum face area = 2.5102693e-06. Maximum face area = 0.17916326.  Face area magnitudes OK.
    Min volume = 2.5102693e-06. Max volume = 0.017537188.  Total volume = 2.33333.  Cell volumes OK.
    Mesh non-orthogonality Max: 0 average: 0
    Non-orthogonality check OK.
    Face pyramids OK.
    Max skewness = 2.5965425e-14 OK.
    Coupled point location match (average 0) OK.

Mesh OK.

End

