/*---------------------------------------------------------------------------*\
  =========                 |
  \\      /  F ield         | OpenFOAM: The Open Source CFD Toolbox
   \\    /   O peration     | Website:  https://openfoam.org
    \\  /    A nd           | Version:  12
     \\/     M anipulation  |
\*---------------------------------------------------------------------------*/
Build  : 12-86e126a7bc4d
Exec   : foamRun
Date   : Jun 20 2026
Time   : 16:00:58
Host   : "NotebookdoDan"
PID    : 41680
I/O    : uncollated
Case   : /home/danilom/OpenFOAM/danilom-12/run/GT1/turbulent_planar
nProcs : 1
sigFpe : Enabling floating point exception trapping (FOAM_SIGFPE).
fileModificationChecking : Monitoring run-time modified files using timeStampMaster (fileModificationSkew 10)
allowSystemOperations : Allowing user-supplied system call operations

// * * * * * * * * * * * * * * * * * * * * * * * * * * * * * * * * * * * * * //
Create time

Create mesh for time = 0

Selecting solver incompressibleFluid
Selecting viscosity model constant
Selecting turbulence model type RAS
Selecting RAS turbulence model kOmega
RAS
{
    RASModel        kOmega;
    turbulence      on;
    printCoeffs     on;
    betaStar        0.09;
    beta            0.072;
    gamma           0.52;
    alphaK          0.5;
    alphaOmega      0.5;
}

No MRF models present


SIMPLE: No convergence criteria found


SIMPLE: Operating solver in steady-state mode with 1 outer corrector
SIMPLE: Operating solver in SIMPLE mode



Starting time loop

    - selecting all cells
    - selected 3000 cell(s) with volume 0.08


    - selecting all cells
    - selected 3000 cell(s) with volume 0.08


    - selecting all cells
    - selected 3000 cell(s) with volume 0.08


    - selecting all cells
    - selected 3000 cell(s) with volume 0.08


    - selecting all cells
    - selected 3000 cell(s) with volume 0.08


    - selecting all cells
    - selected 3000 cell(s) with volume 0.08


wallShearStress wallShearStress1:
    processing all wall patches

--> FOAM Warning :     functionObjects::volFieldValue minmaxdomain_scalar cannot find required object epsilon
--> FOAM Warning :     functionObjects::volFieldValue minmaxdomain_scalar cannot find required object nuTilda


volFieldValue mindomain_scalar write:
    min() of p = 0 at location (0.04 0.00420484656361 0.05) in cell 0
    min() of k = 0.00015 at location (0.04 0.00420484656361 0.05) in cell 0
    min() of omega = 7.5 at location (0.04 0.00420484656361 0.05) in cell 0
    min() of nut = 2e-05 at location (0.04 0.00420484656361 0.05) in cell 0
--> FOAM Warning :     functionObjects::volFieldValue mindomain_scalar cannot find required object epsilon
--> FOAM Warning :     functionObjects::volFieldValue mindomain_scalar cannot find required object nuTilda

volFieldValue mindomain_vector write:
    minMag() of U = 1 at location (0.04 0.00420484656361 0.05) in cell 0

volFieldValue maxdomain_scalar write:
    max() of p = 0 at location (0.04 0.00420484656361 0.05) in cell 0
    max() of k = 0.00015 at location (0.04 0.00420484656361 0.05) in cell 0
    max() of omega = 7.5 at location (0.04 0.00420484656361 0.05) in cell 0
    max() of nut = 2e-05 at location (0.04 0.00420484656361 0.05) in cell 0
--> FOAM Warning :     functionObjects::volFieldValue maxdomain_scalar cannot find required object epsilon
--> FOAM Warning :     functionObjects::volFieldValue maxdomain_scalar cannot find required object nuTilda

volFieldValue maxdomain_vector write:
    maxMag() of U = 1 at location (0.04 0.00420484656361 0.05) in cell 0

yPlus yplus_stats write:
    patch top y+ : min = 4.62460571853, max = 4.62460571853, average = 4.62460571853

Time = 1s

DILUPBiCGStab:  Solving for Ux, Initial residual = 1, Final residual = 5.12323312428e-09, No Iterations 9
DILUPBiCGStab:  Solving for Uy, Initial residual = 0.996791390252, Final residual = 9.13219738119e-09, No Iterations 9
DICPCG:  Solving for p, Initial residual = 1, Final residual = 0.000592251044788, No Iterations 102
DICPCG:  Solving for p, Initial residual = 2.93122912704e-06, Final residual = 4.75579821278e-09, No Iterations 4
DICPCG:  Solving for p, Initial residual = 4.75576193224e-09, Final residual = 1.14044082539e-10, No Iterations 3
time step continuity errors : sum local = 4.68328883568e-11, global = -3.4253585817e-12, cumulative = -3.4253585817e-12
DILUPBiCGStab:  Solving for omega, Initial residual = 0.0287641874074, Final residual = 7.31008795772e-09, No Iterations 7
DILUPBiCGStab:  Solving for k, Initial residual = 1, Final residual = 7.13353926859e-09, No Iterations 5
ExecutionTime = 0.081629 s  ClockTime = 0 s

--> FOAM Warning :     functionObjects::volFieldValue minmaxdomain_scalar cannot find required object epsilon
--> FOAM Warning :     functionObjects::volFieldValue minmaxdomain_scalar cannot find required object nuTilda


volFieldValue mindomain_scalar write:
    min() of p = 0.00125227202117 at location (7.96 0.012293587357 0.05) in cell 199
    min() of k = 6.89359429237e-05 at location (7.96 0.0901756596643 0.05) in cell 2199
    min() of omega = 5.63072988621 at location (7.96 0.0197649214991 0.05) in cell 299
    min() of nut = 1.73480787722e-07 at location (7.96 0.0956180352643 0.05) in cell 2599
--> FOAM Warning :     functionObjects::volFieldValue mindomain_scalar cannot find required object epsilon
--> FOAM Warning :     functionObjects::volFieldValue mindomain_scalar cannot find required object nuTilda

volFieldValue mindomain_vector write:
    minMag() of U = 0.371049366423 at location (7.96 0.0995795153436 0.05) in cell 2999

volFieldValue maxdomain_scalar write:
    max() of p = 0.255396104997 at location (0.04 0.0995795153436 0.05) in cell 2900
    max() of k = 0.0107810929574 at location (0.04 0.0995795153436 0.05) in cell 2900
    max() of omega = 9049.39774322 at location (4.44 0.0995795153436 0.05) in cell 2955
    max() of nut = 2.06301505172e-05 at location (7.96 0.00420484656361 0.05) in cell 99
--> FOAM Warning :     functionObjects::volFieldValue maxdomain_scalar cannot find required object epsilon
--> FOAM Warning :     functionObjects::volFieldValue maxdomain_scalar cannot find required object nuTilda

volFieldValue maxdomain_vector write:
    maxMag() of U = 1.02037192057 at location (7.96 0.012293587357 0.05) in cell 199

yPlus yplus_stats write:
    patch top y+ : min = 2.7976859993, max = 3.18380235896, average = 2.80315719379

Time = 2s

DILUPBiCGStab:  Solving for Ux, Initial residual = 0.166690515853, Final residual = 9.41678197518e-09, No Iterations 9
DILUPBiCGStab:  Solving for Uy, Initial residual = 0.347916936804, Final residual = 8.97414457285e-09, No Iterations 11
DICPCG:  Solving for p, Initial residual = 0.0358760456684, Final residual = 2.70447805875e-05, No Iterations 101
DICPCG:  Solving for p, Initial residual = 2.70511508934e-05, Final residual = 1.55222051749e-08, No Iterations 5
DICPCG:  Solving for p, Initial residual = 1.55223029298e-08, Final residual = 1.33894308099e-09, No Iterations 3
time step continuity errors : sum local = 5.25372169797e-10, global = 1.98234122436e-11, cumulative = 1.63980536619e-11
DILUPBiCGStab:  Solving for omega, Initial residual = 0.270303496357, Final residual = 6.2940512824e-09, No Iterations 4
DILUPBiCGStab:  Solving for k, Initial residual = 0.860805780673, Final residual = 5.46736358397e-09, No Iterations 5
ExecutionTime = 0.090701 s  ClockTime = 0 s

--> FOAM Warning :     functionObjects::volFieldValue minmaxdomain_scalar cannot find required object epsilon
--> FOAM Warning :     functionObjects::volFieldValue minmaxdomain_scalar cannot find required object nuTilda


volFieldValue mindomain_scalar write:
    min() of p = 0.00119515675086 at location (7.96 0.012293587357 0.05) in cell 199
    min() of k = 4.19427777984e-05 at location (7.96 0.0901756596643 0.05) in cell 2199
    min() of omega = 6.05802857084e-05 at location (0.04 0.0931124554828 0.05) in cell 2300
    min() of nut = 8.79838650395e-08 at location (7.96 0.0995795153436 0.05) in cell 2999
--> FOAM Warning :     functionObjects::volFieldValue mindomain_scalar cannot find required object epsilon
--> FOAM Warning :     functionObjects::volFieldValue mindomain_scalar cannot find required object nuTilda

volFieldValue mindomain_vector write:
    minMag() of U = 0.149250023954 at location (7.96 0.0995795153436 0.05) in cell 2999

volFieldValue maxdomain_scalar write:
    max() of p = 0.274065981479 at location (0.04 0.0995795153436 0.05) in cell 2900
    max() of k = 0.00150248225705 at location (0.04 0.0995795153436 0.05) in cell 2900
    max() of omega = 9049.39774322 at location (4.44 0.0995795153436 0.05) in cell 2955
    max() of nut = 2 at location (0.04 0.086733434538 0.05) in cell 1900
--> FOAM Warning :     functionObjects::volFieldValue maxdomain_scalar cannot find required object epsilon
--> FOAM Warning :     functionObjects::volFieldValue maxdomain_scalar cannot find required object nuTilda

volFieldValue maxdomain_vector write:
    maxMag() of U = 1.03769208742 at location (7.96 0.0266659751105 0.05) in cell 399

yPlus yplus_stats write:
    patch top y+ : min = 1.77209062029, max = 2.61087553916, average = 1.78450509711

Time = 3s

DILUPBiCGStab:  Solving for Ux, Initial residual = 0.136628935693, Final residual = 6.90146722157e-09, No Iterations 7
DILUPBiCGStab:  Solving for Uy, Initial residual = 0.0606877868817, Final residual = 5.05584563325e-09, No Iterations 8
DICPCG:  Solving for p, Initial residual = 0.488798096767, Final residual = 0.000351482545385, No Iterations 99
DICPCG:  Solving for p, Initial residual = 0.000262820954896, Final residual = 2.46243644236e-07, No Iterations 24
DICPCG:  Solving for p, Initial residual = 2.46262424271e-07, Final residual = 8.92209719575e-09, No Iterations 97
time step continuity errors : sum local = 9.00170162909e-09, global = -8.50202039999e-11, cumulative = -6.86221503381e-11
DILUPBiCGStab:  Solving for omega, Initial residual = 0.02202123719, Final residual = 2.58019345656e-09, No Iterations 4
DILUPBiCGStab:  Solving for k, Initial residual = 0.646100281546, Final residual = 3.77464986985e-09, No Iterations 6
ExecutionTime = 0.102501 s  ClockTime = 0 s

--> FOAM Warning :     functionObjects::volFieldValue minmaxdomain_scalar cannot find required object epsilon
--> FOAM Warning :     functionObjects::volFieldValue minmaxdomain_scalar cannot find required object nuTilda


volFieldValue mindomain_scalar write:
    min() of p = 0.000867537909548 at location (7.96 0.012293587357 0.05) in cell 199
    min() of k = 4.94786313252e-05 at location (7.8 0.086733434538 0.05) in cell 1997
    min() of omega = 0.85489514437 at location (0.04 0.086733434538 0.05) in cell 1900
    min() of nut = 9.67294040497e-09 at location (7.96 0.0995795153436 0.05) in cell 2999
--> FOAM Warning :     functionObjects::volFieldValue mindomain_scalar cannot find required object epsilon
--> FOAM Warning :     functionObjects::volFieldValue mindomain_scalar cannot find required object nuTilda

volFieldValue mindomain_vector write:
    minMag() of U = 0.0951803610244 at location (7.96 0.0995795153436 0.05) in cell 2999

volFieldValue maxdomain_scalar write:
    max() of p = 0.291397563087 at location (0.04 0.0944149546978 0.05) in cell 2400
    max() of k = 0.000463661494268 at location (0.12 0.0931124554828 0.05) in cell 2301
    max() of omega = 9049.39774322 at location (4.44 0.0995795153436 0.05) in cell 2955
    max() of nut = 0.000198830853632 at location (0.04 0.086733434538 0.05) in cell 1900
--> FOAM Warning :     functionObjects::volFieldValue maxdomain_scalar cannot find required object epsilon
--> FOAM Warning :     functionObjects::volFieldValue maxdomain_scalar cannot find required object nuTilda

volFieldValue maxdomain_vector write:
    maxMag() of U = 1.10969487463 at location (0.12 0.0944149546978 0.05) in cell 2401

yPlus yplus_stats write:
    patch top y+ : min = 1.41487152282, max = 2.49171700869, average = 1.43401007884

Time = 4s

DILUPBiCGStab:  Solving for Ux, Initial residual = 0.0361094091689, Final residual = 1.73515710819e-09, No Iterations 9
DILUPBiCGStab:  Solving for Uy, Initial residual = 0.731301471195, Final residual = 3.09402481418e-09, No Iterations 11
DICPCG:  Solving for p, Initial residual = 0.255926480204, Final residual = 0.000130690514162, No Iterations 99
DICPCG:  Solving for p, Initial residual = 0.000144121426724, Final residual = 1.33198390393e-07, No Iterations 20
DICPCG:  Solving for p, Initial residual = 1.33203005025e-07, Final residual = 5.5813285699e-09, No Iterations 96
time step continuity errors : sum local = 9.27331326898e-09, global = -1.01817566664e-10, cumulative = -1.70439717002e-10
DILUPBiCGStab:  Solving for omega, Initial residual = 0.0105227409476, Final residual = 4.09936163793e-09, No Iterations 4
DILUPBiCGStab:  Solving for k, Initial residual = 0.724009873474, Final residual = 7.05884738049e-09, No Iterations 7
ExecutionTime = 0.115994 s  ClockTime = 0 s

--> FOAM Warning :     functionObjects::volFieldValue minmaxdomain_scalar cannot find required object epsilon
--> FOAM Warning :     functionObjects::volFieldValue minmaxdomain_scalar cannot find required object nuTilda


volFieldValue mindomain_scalar write:
    min() of p = 0.0007176028016 at location (7.96 0.0197649214991 0.05) in cell 299
    min() of k = 1.00505403182e-05 at location (7.96 0.0995795153436 0.05) in cell 2999
    min() of omega = 0.139581399838 at location (0.04 0.0931124554828 0.05) in cell 2300
    min() of nut = 1.11063085118e-09 at location (7.96 0.0995795153436 0.05) in cell 2999
--> FOAM Warning :     functionObjects::volFieldValue mindomain_scalar cannot find required object epsilon
--> FOAM Warning :     functionObjects::volFieldValue mindomain_scalar cannot find required object nuTilda

volFieldValue mindomain_vector write:
    minMag() of U = 0.0734182970295 at location (7.96 0.0995795153436 0.05) in cell 2999

volFieldValue maxdomain_scalar write:
    max() of p = 0.217069912251 at location (0.04 0.0944149546978 0.05) in cell 2400
    max() of k = 0.000884640852296 at location (0.04 0.0944149546978 0.05) in cell 2400
    max() of omega = 9049.39774322 at location (4.44 0.0995795153436 0.05) in cell 2955
    max() of nut = 0.0047831229702 at location (0.04 0.0931124554828 0.05) in cell 2300
--> FOAM Warning :     functionObjects::volFieldValue maxdomain_scalar cannot find required object epsilon
--> FOAM Warning :     functionObjects::volFieldValue maxdomain_scalar cannot find required object nuTilda

volFieldValue maxdomain_vector write:
    maxMag() of U = 1.06006481375 at location (7.96 0.0266659751105 0.05) in cell 399

yPlus yplus_stats write:
    patch top y+ : min = 1.24256122501, max = 2.45271346045, average = 1.26855571506

Time = 5s

DILUPBiCGStab:  Solving for Ux, Initial residual = 0.0285107881034, Final residual = 8.92035115225e-09, No Iterations 7
DILUPBiCGStab:  Solving for Uy, Initial residual = 0.429285310395, Final residual = 9.46755784085e-09, No Iterations 10
DICPCG:  Solving for p, Initial residual = 0.172530621089, Final residual = 0.000166727804237, No Iterations 95
DICPCG:  Solving for p, Initial residual = 0.000175250770909, Final residual = 1.16332445494e-07, No Iterations 100
DICPCG:  Solving for p, Initial residual = 1.16338024164e-07, Final residual = 1.78164938822e-09, No Iterations 3
time step continuity errors : sum local = 2.24092121423e-09, global = 4.90801412151e-11, cumulative = -1.21359575787e-10
DILUPBiCGStab:  Solving for omega, Initial residual = 0.00398728294191, Final residual = 3.87358510739e-09, No Iterations 4
DILUPBiCGStab:  Solving for k, Initial residual = 0.136436915455, Final residual = 9.01581387954e-09, No Iterations 7
ExecutionTime = 0.129757 s  ClockTime = 0 s

--> FOAM Warning :     functionObjects::volFieldValue minmaxdomain_scalar cannot find required object epsilon
--> FOAM Warning :     functionObjects::volFieldValue minmaxdomain_scalar cannot find required object nuTilda


volFieldValue mindomain_scalar write:
    min() of p = 0.000667931645274 at location (7.96 0.012293587357 0.05) in cell 199
    min() of k = 1.41236725843e-06 at location (7.96 0.0995795153436 0.05) in cell 2999
    min() of omega = 2.92154742285 at location (7.96 0.0330402772153 0.05) in cell 499
    min() of nut = 1.56073066795e-10 at location (7.96 0.0995795153436 0.05) in cell 2999
--> FOAM Warning :     functionObjects::volFieldValue mindomain_scalar cannot find required object epsilon
--> FOAM Warning :     functionObjects::volFieldValue mindomain_scalar cannot find required object nuTilda

volFieldValue mindomain_vector write:
    minMag() of U = 0.061847887449 at location (7.96 0.0995795153436 0.05) in cell 2999

volFieldValue maxdomain_scalar write:
    max() of p = 0.195350175376 at location (0.04 0.0826987945589 0.05) in cell 1700
    max() of k = 0.00103131399963 at location (0.12 0.0931124554828 0.05) in cell 2301
    max() of omega = 9049.39774322 at location (4.44 0.0995795153436 0.05) in cell 2955
    max() of nut = 8.76338950374e-05 at location (0.12 0.086733434538 0.05) in cell 1901
--> FOAM Warning :     functionObjects::volFieldValue maxdomain_scalar cannot find required object epsilon
--> FOAM Warning :     functionObjects::volFieldValue maxdomain_scalar cannot find required object nuTilda

volFieldValue maxdomain_vector write:
    maxMag() of U = 1.06901646912 at location (7.96 0.0266659751105 0.05) in cell 399

yPlus yplus_stats write:
    patch top y+ : min = 1.14042071746, max = 2.43545314487, average = 1.1693897325

Time = 6s

DILUPBiCGStab:  Solving for Ux, Initial residual = 0.020246248584, Final residual = 6.51301723e-09, No Iterations 7
DILUPBiCGStab:  Solving for Uy, Initial residual = 0.577574438452, Final residual = 3.2432837487e-09, No Iterations 10
DICPCG:  Solving for p, Initial residual = 0.148202282015, Final residual = 0.000117634504415, No Iterations 99
DICPCG:  Solving for p, Initial residual = 0.000124562269147, Final residual = 7.15473683267e-08, No Iterations 100
DICPCG:  Solving for p, Initial residual = 7.15504970672e-08, Final residual = 7.02558737376e-10, No Iterations 3
time step continuity errors : sum local = 8.1390895257e-10, global = 4.59378984139e-12, cumulative = -1.16765785945e-10
DILUPBiCGStab:  Solving for omega, Initial residual = 0.00322391825794, Final residual = 3.70674385386e-09, No Iterations 4
DILUPBiCGStab:  Solving for k, Initial residual = 0.0674065830894, Final residual = 3.8299437774e-09, No Iterations 7
ExecutionTime = 0.142039 s  ClockTime = 0 s

--> FOAM Warning :     functionObjects::volFieldValue minmaxdomain_scalar cannot find required object epsilon
--> FOAM Warning :     functionObjects::volFieldValue minmaxdomain_scalar cannot find required object nuTilda


volFieldValue mindomain_scalar write:
    min() of p = 0.000637530016369 at location (7.96 0.00420484656361 0.05) in cell 99
    min() of k = 3.73230641565e-07 at location (7.96 0.0995795153436 0.05) in cell 2999
    min() of omega = 2.63046032363 at location (7.96 0.0330402772153 0.05) in cell 499
    min() of nut = 4.12436995429e-11 at location (7.96 0.0995795153436 0.05) in cell 2999
--> FOAM Warning :     functionObjects::volFieldValue mindomain_scalar cannot find required object epsilon
--> FOAM Warning :     functionObjects::volFieldValue mindomain_scalar cannot find required object nuTilda

volFieldValue mindomain_vector write:
    minMag() of U = 0.054375046582 at location (7.96 0.0995795153436 0.05) in cell 2999

volFieldValue maxdomain_scalar write:
    max() of p = 0.198470009613 at location (0.04 0.0917023219868 0.05) in cell 2200
    max() of k = 0.00113111683242 at location (0.12 0.0944149546978 0.05) in cell 2401
    max() of omega = 9049.39774322 at location (4.44 0.0995795153436 0.05) in cell 2955
    max() of nut = 5.3136240963e-05 at location (0.2 0.0847961595858 0.05) in cell 1802
--> FOAM Warning :     functionObjects::volFieldValue maxdomain_scalar cannot find required object epsilon
--> FOAM Warning :     functionObjects::volFieldValue maxdomain_scalar cannot find required object nuTilda

volFieldValue maxdomain_vector write:
    maxMag() of U = 1.07737058333 at location (7.96 0.0266659751105 0.05) in cell 399

yPlus yplus_stats write:
    patch top y+ : min = 1.06928823898, max = 2.43594992208, average = 1.10164011807

Time = 7s

DILUPBiCGStab:  Solving for Ux, Initial residual = 0.0164886936129, Final residual = 6.71316925123e-09, No Iterations 7
DILUPBiCGStab:  Solving for Uy, Initial residual = 0.48056389799, Final residual = 5.45902207823e-09, No Iterations 10
DICPCG:  Solving for p, Initial residual = 0.117989791932, Final residual = 9.60507022315e-05, No Iterations 99
DICPCG:  Solving for p, Initial residual = 0.000101597253596, Final residual = 5.77786942412e-08, No Iterations 100
DICPCG:  Solving for p, Initial residual = 5.77802607638e-08, Final residual = 8.17575610894e-10, No Iterations 3
time step continuity errors : sum local = 8.70091381126e-10, global = 5.75727425123e-12, cumulative = -1.11008511694e-10
DILUPBiCGStab:  Solving for omega, Initial residual = 0.0014360608135, Final residual = 4.25999030942e-09, No Iterations 4
DILUPBiCGStab:  Solving for k, Initial residual = 0.059694582474, Final residual = 9.02683721058e-09, No Iterations 6
ExecutionTime = 0.154295 s  ClockTime = 0 s

--> FOAM Warning :     functionObjects::volFieldValue minmaxdomain_scalar cannot find required object epsilon
--> FOAM Warning :     functionObjects::volFieldValue minmaxdomain_scalar cannot find required object nuTilda


volFieldValue mindomain_scalar write:
    min() of p = 0.000610363672298 at location (7.96 0.00420484656361 0.05) in cell 99
    min() of k = 2.09100164288e-07 at location (7.96 0.0995795153436 0.05) in cell 2999
    min() of omega = 2.40537690208 at location (7.96 0.0330402772153 0.05) in cell 499
    min() of nut = 2.31065282156e-11 at location (7.96 0.0995795153436 0.05) in cell 2999
--> FOAM Warning :     functionObjects::volFieldValue mindomain_scalar cannot find required object epsilon
--> FOAM Warning :     functionObjects::volFieldValue mindomain_scalar cannot find required object nuTilda

volFieldValue mindomain_vector write:
    minMag() of U = 0.0491380759021 at location (7.96 0.0995795153436 0.05) in cell 2999

volFieldValue maxdomain_scalar write:
    max() of p = 0.198462552711 at location (0.04 0.0995795153436 0.05) in cell 2900
    max() of k = 0.00113550837412 at location (0.2 0.0931124554828 0.05) in cell 2302
    max() of omega = 9049.39774322 at location (4.44 0.0995795153436 0.05) in cell 2955
    max() of nut = 3.55811904022e-05 at location (0.36 0.0826987945589 0.05) in cell 1704
--> FOAM Warning :     functionObjects::volFieldValue maxdomain_scalar cannot find required object epsilon
--> FOAM Warning :     functionObjects::volFieldValue maxdomain_scalar cannot find required object nuTilda

volFieldValue maxdomain_vector write:
    maxMag() of U = 1.08529151792 at location (7.96 0.0330402772153 0.05) in cell 499

yPlus yplus_stats write:
    patch top y+ : min = 1.01648035493, max = 2.44344595488, average = 1.05300894784

Time = 8s

DILUPBiCGStab:  Solving for Ux, Initial residual = 0.0138177700729, Final residual = 6.75516366044e-09, No Iterations 7
DILUPBiCGStab:  Solving for Uy, Initial residual = 0.414353322204, Final residual = 9.18288658903e-09, No Iterations 10
DICPCG:  Solving for p, Initial residual = 0.100034554307, Final residual = 6.74249345593e-05, No Iterations 99
DICPCG:  Solving for p, Initial residual = 7.08725074086e-05, Final residual = 6.62710553068e-08, No Iterations 89
DICPCG:  Solving for p, Initial residual = 6.62721342091e-08, Final residual = 9.81354954794e-09, No Iterations 70
time step continuity errors : sum local = 1.00640454803e-08, global = 5.25350375105e-10, cumulative = 4.14341863411e-10
DILUPBiCGStab:  Solving for omega, Initial residual = 0.00113654023833, Final residual = 3.24055429302e-09, No Iterations 4
DILUPBiCGStab:  Solving for k, Initial residual = 0.0560665262814, Final residual = 5.51685297569e-09, No Iterations 6
ExecutionTime = 0.168472 s  ClockTime = 0 s

--> FOAM Warning :     functionObjects::volFieldValue minmaxdomain_scalar cannot find required object epsilon
--> FOAM Warning :     functionObjects::volFieldValue minmaxdomain_scalar cannot find required object nuTilda


volFieldValue mindomain_scalar write:
    min() of p = 0.000587501008331 at location (7.96 0.0724268993585 0.05) in cell 1399
    min() of k = 1.76567355541e-07 at location (7.96 0.0995795153436 0.05) in cell 2999
    min() of omega = 2.22993188846 at location (7.96 0.0330402772153 0.05) in cell 499
    min() of nut = 1.9511503478e-11 at location (7.96 0.0995795153436 0.05) in cell 2999
--> FOAM Warning :     functionObjects::volFieldValue mindomain_scalar cannot find required object epsilon
--> FOAM Warning :     functionObjects::volFieldValue mindomain_scalar cannot find required object nuTilda

volFieldValue mindomain_vector write:
    minMag() of U = 0.0452062821712 at location (7.96 0.0995795153436 0.05) in cell 2999

volFieldValue maxdomain_scalar write:
    max() of p = 0.198290877355 at location (0.04 0.0995795153436 0.05) in cell 2900
    max() of k = 0.00123221423507 at location (0.2 0.0944149546978 0.05) in cell 2402
    max() of omega = 9049.39774322 at location (4.44 0.0995795153436 0.05) in cell 2955
    max() of nut = 2.76328315122e-05 at location (0.52 0.0804281101364 0.05) in cell 1606
--> FOAM Warning :     functionObjects::volFieldValue maxdomain_scalar cannot find required object epsilon
--> FOAM Warning :     functionObjects::volFieldValue maxdomain_scalar cannot find required object nuTilda

volFieldValue maxdomain_vector write:
    maxMag() of U = 1.09281705069 at location (7.96 0.0330402772153 0.05) in cell 499

yPlus yplus_stats write:
    patch top y+ : min = 0.974957556785, max = 2.44726456753, average = 1.0155288939

Time = 9s

DILUPBiCGStab:  Solving for Ux, Initial residual = 0.0118238039236, Final residual = 4.50796474055e-09, No Iterations 7
DILUPBiCGStab:  Solving for Uy, Initial residual = 0.370590488916, Final residual = 9.97621270925e-09, No Iterations 9
DICPCG:  Solving for p, Initial residual = 0.0883569766814, Final residual = 7.71944126457e-05, No Iterations 80
DICPCG:  Solving for p, Initial residual = 8.06354534523e-05, Final residual = 3.08229434839e-08, No Iterations 100
DICPCG:  Solving for p, Initial residual = 3.08961144715e-08, Final residual = 3.21824612068e-10, No Iterations 3
time step continuity errors : sum local = 3.13423835263e-10, global = 1.99744021496e-13, cumulative = 4.14541607433e-10
DILUPBiCGStab:  Solving for omega, Initial residual = 0.000510521799441, Final residual = 6.44529897471e-09, No Iterations 3
DILUPBiCGStab:  Solving for k, Initial residual = 0.0574450681633, Final residual = 4.30778019573e-09, No Iterations 6
ExecutionTime = 0.180199 s  ClockTime = 0 s

--> FOAM Warning :     functionObjects::volFieldValue minmaxdomain_scalar cannot find required object epsilon
--> FOAM Warning :     functionObjects::volFieldValue minmaxdomain_scalar cannot find required object nuTilda


volFieldValue mindomain_scalar write:
    min() of p = 0.000569285587261 at location (7.96 0.0995795153436 0.05) in cell 2999
    min() of k = 1.67151964862e-07 at location (7.96 0.0995795153436 0.05) in cell 2999
    min() of omega = 2.09330937667 at location (7.96 0.0330402772153 0.05) in cell 499
    min() of nut = 1.84710595783e-11 at location (7.96 0.0995795153436 0.05) in cell 2999
--> FOAM Warning :     functionObjects::volFieldValue mindomain_scalar cannot find required object epsilon
--> FOAM Warning :     functionObjects::volFieldValue mindomain_scalar cannot find required object nuTilda

volFieldValue mindomain_vector write:
    minMag() of U = 0.0422002126497 at location (7.96 0.0995795153436 0.05) in cell 2999

volFieldValue maxdomain_scalar write:
    max() of p = 0.198817383486 at location (0.04 0.0995795153436 0.05) in cell 2900
    max() of k = 0.00137479388377 at location (0.28 0.0931124554828 0.05) in cell 2303
    max() of omega = 9049.39774322 at location (4.44 0.0995795153436 0.05) in cell 2955
    max() of nut = 2.53206035344e-05 at location (7.96 0.012293587357 0.05) in cell 199
--> FOAM Warning :     functionObjects::volFieldValue maxdomain_scalar cannot find required object epsilon
--> FOAM Warning :     functionObjects::volFieldValue maxdomain_scalar cannot find required object nuTilda

volFieldValue maxdomain_vector write:
    maxMag() of U = 1.09996411417 at location (7.96 0.0330402772153 0.05) in cell 499

yPlus yplus_stats write:
    patch top y+ : min = 0.941978508006, max = 2.44953376798, average = 0.986592979367

Time = 10s

DILUPBiCGStab:  Solving for Ux, Initial residual = 0.0102615093928, Final residual = 3.83752966624e-09, No Iterations 7
DILUPBiCGStab:  Solving for Uy, Initial residual = 0.34144096203, Final residual = 3.05692627371e-09, No Iterations 10
DICPCG:  Solving for p, Initial residual = 0.0803821658615, Final residual = 7.35217627524e-05, No Iterations 78
DICPCG:  Solving for p, Initial residual = 7.67106549934e-05, Final residual = 2.86872986977e-08, No Iterations 100
DICPCG:  Solving for p, Initial residual = 2.87243109169e-08, Final residual = 2.64825178413e-10, No Iterations 3
time step continuity errors : sum local = 2.44376621007e-10, global = 1.53606740109e-12, cumulative = 4.16077674834e-10
DILUPBiCGStab:  Solving for omega, Initial residual = 0.000440099164077, Final residual = 4.3476856239e-09, No Iterations 3
DILUPBiCGStab:  Solving for k, Initial residual = 0.0570478345476, Final residual = 9.46905291678e-09, No Iterations 5
ExecutionTime = 0.191947 s  ClockTime = 0 s

--> FOAM Warning :     functionObjects::volFieldValue minmaxdomain_scalar cannot find required object epsilon
--> FOAM Warning :     functionObjects::volFieldValue minmaxdomain_scalar cannot find required object nuTilda


volFieldValue mindomain_scalar write:
    min() of p = 0.000554778622569 at location (7.96 0.0995795153436 0.05) in cell 2999
    min() of k = 1.7223010766e-07 at location (7.96 0.0995795153436 0.05) in cell 2999
    min() of omega = 1.98815894358 at location (7.96 0.0330402772153 0.05) in cell 499
    min() of nut = 1.90322176731e-11 at location (7.96 0.0995795153436 0.05) in cell 2999
--> FOAM Warning :     functionObjects::volFieldValue mindomain_scalar cannot find required object epsilon
--> FOAM Warning :     functionObjects::volFieldValue mindomain_scalar cannot find required object nuTilda

volFieldValue mindomain_vector write:
    minMag() of U = 0.0398479608389 at location (7.96 0.0995795153436 0.05) in cell 2999

volFieldValue maxdomain_scalar write:
    max() of p = 0.200146060721 at location (0.04 0.0995795153436 0.05) in cell 2900
    max() of k = 0.00156724211522 at location (0.28 0.0944149546978 0.05) in cell 2403
    max() of omega = 9049.39774322 at location (4.44 0.0995795153436 0.05) in cell 2955
    max() of nut = 2.55927239992e-05 at location (7.96 0.012293587357 0.05) in cell 199
--> FOAM Warning :     functionObjects::volFieldValue maxdomain_scalar cannot find required object epsilon
--> FOAM Warning :     functionObjects::volFieldValue maxdomain_scalar cannot find required object nuTilda

volFieldValue maxdomain_vector write:
    maxMag() of U = 1.10678704756 at location (7.96 0.0330402772153 0.05) in cell 499

yPlus yplus_stats write:
    patch top y+ : min = 0.915344825928, max = 2.45110207659, average = 0.964058415583

Time = 11s

DILUPBiCGStab:  Solving for Ux, Initial residual = 0.00899530988501, Final residual = 8.69259922287e-09, No Iterations 6
DILUPBiCGStab:  Solving for Uy, Initial residual = 0.315164054651, Final residual = 8.51591104825e-09, No Iterations 9
DICPCG:  Solving for p, Initial residual = 0.073404675449, Final residual = 7.13099265684e-05, No Iterations 71
DICPCG:  Solving for p, Initial residual = 7.43412206057e-05, Final residual = 3.34902830886e-08, No Iterations 100
DICPCG:  Solving for p, Initial residual = 3.34934256823e-08, Final residual = 7.18767512191e-10, No Iterations 3
time step continuity errors : sum local = 6.23046293583e-10, global = 6.11559939864e-12, cumulative = 4.22193274233e-10
DILUPBiCGStab:  Solving for omega, Initial residual = 0.000203063722446, Final residual = 2.66870840698e-09, No Iterations 3
DILUPBiCGStab:  Solving for k, Initial residual = 0.0582258687532, Final residual = 9.77653237468e-09, No Iterations 5
ExecutionTime = 0.203508 s  ClockTime = 0 s

--> FOAM Warning :     functionObjects::volFieldValue minmaxdomain_scalar cannot find required object epsilon
--> FOAM Warning :     functionObjects::volFieldValue minmaxdomain_scalar cannot find required object nuTilda


volFieldValue mindomain_scalar write:
    min() of p = 0.000543530261109 at location (7.96 0.0995795153436 0.05) in cell 2999
    min() of k = 1.83732046112e-07 at location (7.96 0.0995795153436 0.05) in cell 2999
    min() of omega = 1.90913512941 at location (7.96 0.0330402772153 0.05) in cell 499
    min() of nut = 2.03032346821e-11 at location (7.96 0.0995795153436 0.05) in cell 2999
--> FOAM Warning :     functionObjects::volFieldValue mindomain_scalar cannot find required object epsilon
--> FOAM Warning :     functionObjects::volFieldValue mindomain_scalar cannot find required object nuTilda

volFieldValue mindomain_vector write:
    minMag() of U = 0.0380249012956 at location (7.96 0.0995795153436 0.05) in cell 2999

volFieldValue maxdomain_scalar write:
    max() of p = 0.202098307357 at location (0.04 0.0995795153436 0.05) in cell 2900
    max() of k = 0.00184414869923 at location (0.36 0.0931124554828 0.05) in cell 2304
    max() of omega = 9049.39774322 at location (4.44 0.0995795153436 0.05) in cell 2955
    max() of nut = 2.55701791397e-05 at location (7.96 0.012293587357 0.05) in cell 199
--> FOAM Warning :     functionObjects::volFieldValue maxdomain_scalar cannot find required object epsilon
--> FOAM Warning :     functionObjects::volFieldValue maxdomain_scalar cannot find required object nuTilda

volFieldValue maxdomain_vector write:
    maxMag() of U = 1.11332760334 at location (7.96 0.0330402772153 0.05) in cell 499

yPlus yplus_stats write:
    patch top y+ : min = 0.894157916496, max = 2.45228224162, average = 0.947044577077

Time = 12s

DILUPBiCGStab:  Solving for Ux, Initial residual = 0.00796604967715, Final residual = 8.14238782026e-09, No Iterations 6
DILUPBiCGStab:  Solving for Uy, Initial residual = 0.289807393025, Final residual = 4.5519564769e-09, No Iterations 9
DICPCG:  Solving for p, Initial residual = 0.0681698964376, Final residual = 5.89935895963e-05, No Iterations 73
DICPCG:  Solving for p, Initial residual = 6.1451563559e-05, Final residual = 2.94575608809e-08, No Iterations 100
DICPCG:  Solving for p, Initial residual = 2.94224909504e-08, Final residual = 3.76597439581e-10, No Iterations 3
time step continuity errors : sum local = 3.05959610519e-10, global = 9.45328689958e-14, cumulative = 4.22287807102e-10
DILUPBiCGStab:  Solving for omega, Initial residual = 0.000190210985516, Final residual = 2.11443091461e-09, No Iterations 3
DILUPBiCGStab:  Solving for k, Initial residual = 0.0580414251131, Final residual = 1.69544201528e-09, No Iterations 6
ExecutionTime = 0.214843 s  ClockTime = 0 s

--> FOAM Warning :     functionObjects::volFieldValue minmaxdomain_scalar cannot find required object epsilon
--> FOAM Warning :     functionObjects::volFieldValue minmaxdomain_scalar cannot find required object nuTilda


volFieldValue mindomain_scalar write:
    min() of p = 0.000535202814259 at location (7.96 0.0995795153436 0.05) in cell 2999
    min() of k = 2.04155515693e-07 at location (7.96 0.0995795153436 0.05) in cell 2999
    min() of omega = 1.85219505461 at location (7.96 0.0330402772153 0.05) in cell 499
    min() of nut = 2.2560121843e-11 at location (7.96 0.0995795153436 0.05) in cell 2999
--> FOAM Warning :     functionObjects::volFieldValue mindomain_scalar cannot find required object epsilon
--> FOAM Warning :     functionObjects::volFieldValue mindomain_scalar cannot find required object nuTilda

volFieldValue mindomain_vector write:
    minMag() of U = 0.0366284891286 at location (7.96 0.0995795153436 0.05) in cell 2999

volFieldValue maxdomain_scalar write:
    max() of p = 0.204541113079 at location (0.04 0.0995795153436 0.05) in cell 2900
    max() of k = 0.00215218663594 at location (0.44 0.0931124554828 0.05) in cell 2305
    max() of omega = 9049.39774322 at location (4.44 0.0995795153436 0.05) in cell 2955
    max() of nut = 2.521412286e-05 at location (7.96 0.012293587357 0.05) in cell 199
--> FOAM Warning :     functionObjects::volFieldValue maxdomain_scalar cannot find required object epsilon
--> FOAM Warning :     functionObjects::volFieldValue maxdomain_scalar cannot find required object nuTilda

volFieldValue maxdomain_vector write:
    maxMag() of U = 1.11961862494 at location (7.96 0.0330402772153 0.05) in cell 499

yPlus yplus_stats write:
    patch top y+ : min = 0.877583717665, max = 2.45315645752, average = 0.934673361621

Time = 13s

DILUPBiCGStab:  Solving for Ux, Initial residual = 0.00715312589953, Final residual = 7.82610956001e-09, No Iterations 6
DILUPBiCGStab:  Solving for Uy, Initial residual = 0.265537828481, Final residual = 8.76333608761e-09, No Iterations 9
DICPCG:  Solving for p, Initial residual = 0.0641269650187, Final residual = 3.39176122102e-05, No Iterations 99
DICPCG:  Solving for p, Initial residual = 3.51425609767e-05, Final residual = 3.00633022591e-08, No Iterations 12
DICPCG:  Solving for p, Initial residual = 3.00633651701e-08, Final residual = 5.00287376519e-09, No Iterations 91
time step continuity errors : sum local = 3.8192717557e-09, global = 1.08108921947e-10, cumulative = 5.30396729048e-10
DILUPBiCGStab:  Solving for omega, Initial residual = 0.000107363110955, Final residual = 9.13805977137e-09, No Iterations 3
DILUPBiCGStab:  Solving for k, Initial residual = 0.0576917248683, Final residual = 1.71381399885e-09, No Iterations 6
ExecutionTime = 0.23023 s  ClockTime = 0 s

--> FOAM Warning :     functionObjects::volFieldValue minmaxdomain_scalar cannot find required object epsilon
--> FOAM Warning :     functionObjects::volFieldValue minmaxdomain_scalar cannot find required object nuTilda


volFieldValue mindomain_scalar write:
    min() of p = 0.000530039011356 at location (7.96 0.0995795153436 0.05) in cell 2999
    min() of k = 2.32059726911e-07 at location (7.96 0.0995795153436 0.05) in cell 2999
    min() of omega = 1.8141472299 at location (7.96 0.0330402772153 0.05) in cell 499
    min() of nut = 2.56436653019e-11 at location (7.96 0.0995795153436 0.05) in cell 2999
--> FOAM Warning :     functionObjects::volFieldValue mindomain_scalar cannot find required object epsilon
--> FOAM Warning :     functionObjects::volFieldValue mindomain_scalar cannot find required object nuTilda

volFieldValue mindomain_vector write:
    minMag() of U = 0.0356149154226 at location (7.96 0.0995795153436 0.05) in cell 2999

volFieldValue maxdomain_scalar write:
    max() of p = 0.2075221312 at location (0.04 0.0995795153436 0.05) in cell 2900
    max() of k = 0.00251659527865 at location (0.44 0.0931124554828 0.05) in cell 2305
    max() of omega = 9049.39774322 at location (4.44 0.0995795153436 0.05) in cell 2955
    max() of nut = 2.49376060562e-05 at location (1 0.0804281101364 0.05) in cell 1612
--> FOAM Warning :     functionObjects::volFieldValue maxdomain_scalar cannot find required object epsilon
--> FOAM Warning :     functionObjects::volFieldValue maxdomain_scalar cannot find required object nuTilda

volFieldValue maxdomain_vector write:
    maxMag() of U = 1.12569260671 at location (7.96 0.0330402772153 0.05) in cell 499

yPlus yplus_stats write:
    patch top y+ : min = 0.865354809812, max = 2.45381052831, average = 0.926654793223

Time = 14s

DILUPBiCGStab:  Solving for Ux, Initial residual = 0.00652980740306, Final residual = 7.56168469782e-09, No Iterations 6
DILUPBiCGStab:  Solving for Uy, Initial residual = 0.244846354217, Final residual = 6.18654183001e-09, No Iterations 9
DICPCG:  Solving for p, Initial residual = 0.0607975114371, Final residual = 6.0422746339e-05, No Iterations 93
DICPCG:  Solving for p, Initial residual = 6.2246919527e-05, Final residual = 2.79027104862e-08, No Iterations 100
DICPCG:  Solving for p, Initial residual = 2.79007983653e-08, Final residual = 5.2895377964e-10, No Iterations 3
time step continuity errors : sum local = 3.81970913214e-10, global = -1.37888665805e-12, cumulative = 5.2901784239e-10
DILUPBiCGStab:  Solving for omega, Initial residual = 9.70907818927e-05, Final residual = 8.19218202498e-09, No Iterations 3
DILUPBiCGStab:  Solving for k, Initial residual = 0.0564550888429, Final residual = 4.3833111683e-09, No Iterations 5
ExecutionTime = 0.243106 s  ClockTime = 0 s

--> FOAM Warning :     functionObjects::volFieldValue minmaxdomain_scalar cannot find required object epsilon
--> FOAM Warning :     functionObjects::volFieldValue minmaxdomain_scalar cannot find required object nuTilda


volFieldValue mindomain_scalar write:
    min() of p = 0.000528400842558 at location (7.96 0.0995795153436 0.05) in cell 2999
    min() of k = 2.20310354713e-07 at location (0.12 0.0995795153436 0.05) in cell 2901
    min() of omega = 1.79310398152 at location (7.96 0.0330402772153 0.05) in cell 499
    min() of nut = 2.4345305728e-11 at location (0.12 0.0995795153436 0.05) in cell 2901
--> FOAM Warning :     functionObjects::volFieldValue mindomain_scalar cannot find required object epsilon
--> FOAM Warning :     functionObjects::volFieldValue mindomain_scalar cannot find required object nuTilda

volFieldValue mindomain_vector write:
    minMag() of U = 0.0349474383754 at location (7.96 0.0995795153436 0.05) in cell 2999

volFieldValue maxdomain_scalar write:
    max() of p = 0.211084050932 at location (0.04 0.0995795153436 0.05) in cell 2900
    max() of k = 0.00293786971405 at location (0.52 0.0931124554828 0.05) in cell 2306
    max() of omega = 9049.39774322 at location (4.44 0.0995795153436 0.05) in cell 2955
    max() of nut = 2.89960029898e-05 at location (1 0.0826987945589 0.05) in cell 1712
--> FOAM Warning :     functionObjects::volFieldValue maxdomain_scalar cannot find required object epsilon
--> FOAM Warning :     functionObjects::volFieldValue maxdomain_scalar cannot find required object nuTilda

volFieldValue maxdomain_vector write:
    maxMag() of U = 1.13158323105 at location (7.96 0.0330402772153 0.05) in cell 499

yPlus yplus_stats write:
    patch top y+ : min = 0.857206402833, max = 2.45429598773, average = 0.922673945405

Time = 15s

DILUPBiCGStab:  Solving for Ux, Initial residual = 0.00619987003432, Final residual = 7.34784349016e-09, No Iterations 6
DILUPBiCGStab:  Solving for Uy, Initial residual = 0.224989706087, Final residual = 5.0277895279e-09, No Iterations 9
DICPCG:  Solving for p, Initial residual = 0.0576835126329, Final residual = 2.79125038103e-05, No Iterations 99
DICPCG:  Solving for p, Initial residual = 2.86571073284e-05, Final residual = 2.4580817527e-08, No Iterations 23
DICPCG:  Solving for p, Initial residual = 2.45807699381e-08, Final residual = 7.83357339236e-09, No Iterations 3
time step continuity errors : sum local = 5.36126759813e-09, global = -1.5281188913e-09, cumulative = -9.99101048913e-10
DILUPBiCGStab:  Solving for omega, Initial residual = 8.60309294291e-05, Final residual = 7.60039266033e-09, No Iterations 3
DILUPBiCGStab:  Solving for k, Initial residual = 0.0547553122159, Final residual = 3.90079160724e-09, No Iterations 5
ExecutionTime = 0.252153 s  ClockTime = 0 s

--> FOAM Warning :     functionObjects::volFieldValue minmaxdomain_scalar cannot find required object epsilon
--> FOAM Warning :     functionObjects::volFieldValue minmaxdomain_scalar cannot find required object nuTilda


volFieldValue mindomain_scalar write:
    min() of p = 0.00053103243887 at location (7.96 0.0995795153436 0.05) in cell 2999
    min() of k = 1.57711509166e-07 at location (0.12 0.0995795153436 0.05) in cell 2901
    min() of omega = 1.76523187935 at location (7.96 0.0266659751105 0.05) in cell 399
    min() of nut = 1.74278458789e-11 at location (0.12 0.0995795153436 0.05) in cell 2901
--> FOAM Warning :     functionObjects::volFieldValue mindomain_scalar cannot find required object epsilon
--> FOAM Warning :     functionObjects::volFieldValue mindomain_scalar cannot find required object nuTilda

volFieldValue mindomain_vector write:
    minMag() of U = 0.0346152520786 at location (7.96 0.0995795153436 0.05) in cell 2999

volFieldValue maxdomain_scalar write:
    max() of p = 0.21532899513 at location (0.04 0.0995795153436 0.05) in cell 2900
    max() of k = 0.0033809682968 at location (0.6 0.0931124554828 0.05) in cell 2307
    max() of omega = 9049.39774322 at location (4.44 0.0995795153436 0.05) in cell 2955
    max() of nut = 3.47700089695e-05 at location (1.16 0.0826987945589 0.05) in cell 1714
--> FOAM Warning :     functionObjects::volFieldValue maxdomain_scalar cannot find required object epsilon
--> FOAM Warning :     functionObjects::volFieldValue maxdomain_scalar cannot find required object nuTilda

volFieldValue maxdomain_vector write:
    maxMag() of U = 1.13733005944 at location (7.96 0.0330402772153 0.05) in cell 499

yPlus yplus_stats write:
    patch top y+ : min = 0.853122163132, max = 2.45466689489, average = 0.922666636781

Time = 16s

DILUPBiCGStab:  Solving for Ux, Initial residual = 0.00630940529339, Final residual = 7.00489288594e-09, No Iterations 6
DILUPBiCGStab:  Solving for Uy, Initial residual = 0.206190317426, Final residual = 4.75795590428e-09, No Iterations 9
DICPCG:  Solving for p, Initial residual = 0.0544606301988, Final residual = 2.53557027275e-05, No Iterations 99
DICPCG:  Solving for p, Initial residual = 2.59242772648e-05, Final residual = 2.35762015334e-08, No Iterations 16
DICPCG:  Solving for p, Initial residual = 2.35761687975e-08, Final residual = 8.33213714713e-09, No Iterations 13
time step continuity errors : sum local = 5.42240632212e-09, global = -7.02054186053e-10, cumulative = -1.70115523497e-09
DILUPBiCGStab:  Solving for omega, Initial residual = 7.40854108236e-05, Final residual = 4.56104792703e-09, No Iterations 3
DILUPBiCGStab:  Solving for k, Initial residual = 0.0523403730224, Final residual = 4.07742706945e-09, No Iterations 5
ExecutionTime = 0.264266 s  ClockTime = 0 s

--> FOAM Warning :     functionObjects::volFieldValue minmaxdomain_scalar cannot find required object epsilon
--> FOAM Warning :     functionObjects::volFieldValue minmaxdomain_scalar cannot find required object nuTilda


volFieldValue mindomain_scalar write:
    min() of p = 0.000538735276968 at location (7.96 0.0995795153436 0.05) in cell 2999
    min() of k = 1.02618988938e-07 at location (0.12 0.0995795153436 0.05) in cell 2901
    min() of omega = 1.74510580046 at location (7.96 0.0266659751105 0.05) in cell 399
    min() of nut = 1.13398694421e-11 at location (0.12 0.0995795153436 0.05) in cell 2901
--> FOAM Warning :     functionObjects::volFieldValue mindomain_scalar cannot find required object epsilon
--> FOAM Warning :     functionObjects::volFieldValue mindomain_scalar cannot find required object nuTilda

volFieldValue mindomain_vector write:
    minMag() of U = 0.0346082344526 at location (7.96 0.0995795153436 0.05) in cell 2999

volFieldValue maxdomain_scalar write:
    max() of p = 0.220343503646 at location (0.04 0.0995795153436 0.05) in cell 2900
    max() of k = 0.0038996306925 at location (0.76 0.0917023219868 0.05) in cell 2209
    max() of omega = 9049.39774322 at location (4.44 0.0995795153436 0.05) in cell 2955
    max() of nut = 4.2267242113e-05 at location (1.24 0.0826987945589 0.05) in cell 1715
--> FOAM Warning :     functionObjects::volFieldValue maxdomain_scalar cannot find required object epsilon
--> FOAM Warning :     functionObjects::volFieldValue maxdomain_scalar cannot find required object nuTilda

volFieldValue maxdomain_vector write:
    maxMag() of U = 1.14297749172 at location (7.96 0.0330402772153 0.05) in cell 499

yPlus yplus_stats write:
    patch top y+ : min = 0.853035670443, max = 2.4549545057, average = 0.926491620365

Time = 17s

DILUPBiCGStab:  Solving for Ux, Initial residual = 0.00670642069229, Final residual = 6.47981062192e-09, No Iterations 6
DILUPBiCGStab:  Solving for Uy, Initial residual = 0.189018374973, Final residual = 9.29609189296e-09, No Iterations 8
DICPCG:  Solving for p, Initial residual = 0.0514546793832, Final residual = 2.24904935815e-05, No Iterations 99
DICPCG:  Solving for p, Initial residual = 2.28882979816e-05, Final residual = 2.19209654949e-08, No Iterations 14
DICPCG:  Solving for p, Initial residual = 2.19209539925e-08, Final residual = 9.95509889689e-09, No Iterations 9
time step continuity errors : sum local = 6.18028010527e-09, global = -7.74446820629e-10, cumulative = -2.4756020556e-09
DILUPBiCGStab:  Solving for omega, Initial residual = 9.39278834762e-05, Final residual = 5.21993427396e-09, No Iterations 3
DILUPBiCGStab:  Solving for k, Initial residual = 0.049399014139, Final residual = 2.00416748313e-09, No Iterations 5
ExecutionTime = 0.273223 s  ClockTime = 0 s

--> FOAM Warning :     functionObjects::volFieldValue minmaxdomain_scalar cannot find required object epsilon
--> FOAM Warning :     functionObjects::volFieldValue minmaxdomain_scalar cannot find required object nuTilda


volFieldValue mindomain_scalar write:
    min() of p = 0.00055237691539 at location (7.96 0.0995795153436 0.05) in cell 2999
    min() of k = 5.56754086179e-08 at location (0.12 0.0995795153436 0.05) in cell 2901
    min() of omega = 1.73466978698 at location (7.96 0.0266659751105 0.05) in cell 399
    min() of nut = 6.15238828016e-12 at location (0.12 0.0995795153436 0.05) in cell 2901
--> FOAM Warning :     functionObjects::volFieldValue mindomain_scalar cannot find required object epsilon
--> FOAM Warning :     functionObjects::volFieldValue mindomain_scalar cannot find required object nuTilda

volFieldValue mindomain_vector write:
    minMag() of U = 0.0349240558714 at location (7.96 0.0995795153436 0.05) in cell 2999

volFieldValue maxdomain_scalar write:
    max() of p = 0.226230024685 at location (0.04 0.0995795153436 0.05) in cell 2900
    max() of k = 0.00443850642709 at location (0.84 0.0917023219868 0.05) in cell 2210
    max() of omega = 9049.39774322 at location (4.44 0.0995795153436 0.05) in cell 2955
    max() of nut = 5.1696521405e-05 at location (1.4 0.0826987945589 0.05) in cell 1717
--> FOAM Warning :     functionObjects::volFieldValue maxdomain_scalar cannot find required object epsilon
--> FOAM Warning :     functionObjects::volFieldValue maxdomain_scalar cannot find required object nuTilda

volFieldValue maxdomain_vector write:
    maxMag() of U = 1.14857237793 at location (7.96 0.0330402772153 0.05) in cell 499

yPlus yplus_stats write:
    patch top y+ : min = 0.856919550785, max = 2.45518251838, average = 0.934042176212

Time = 18s

DILUPBiCGStab:  Solving for Ux, Initial residual = 0.00725581407274, Final residual = 5.80879648767e-09, No Iterations 6
DILUPBiCGStab:  Solving for Uy, Initial residual = 0.172210139831, Final residual = 5.99083764038e-09, No Iterations 8
DICPCG:  Solving for p, Initial residual = 0.0485322851289, Final residual = 2.03412206069e-05, No Iterations 99
DICPCG:  Solving for p, Initial residual = 2.05739654694e-05, Final residual = 1.41047882728e-08, No Iterations 21
DICPCG:  Solving for p, Initial residual = 1.41047741209e-08, Final residual = 4.70958025903e-09, No Iterations 3
time step continuity errors : sum local = 2.8059298194e-09, global = -6.43982337815e-10, cumulative = -3.11958439341e-09
DILUPBiCGStab:  Solving for omega, Initial residual = 9.21006317994e-05, Final residual = 4.0064445692e-09, No Iterations 3
DILUPBiCGStab:  Solving for k, Initial residual = 0.0459878045981, Final residual = 7.65415278335e-09, No Iterations 5
ExecutionTime = 0.284135 s  ClockTime = 0 s

--> FOAM Warning :     functionObjects::volFieldValue minmaxdomain_scalar cannot find required object epsilon
--> FOAM Warning :     functionObjects::volFieldValue minmaxdomain_scalar cannot find required object nuTilda


volFieldValue mindomain_scalar write:
    min() of p = 0.000572673855424 at location (7.96 0.0995795153436 0.05) in cell 2999
    min() of k = 1.68892506032e-08 at location (0.12 0.0995795153436 0.05) in cell 2901
    min() of omega = 1.7354032879 at location (7.96 0.0266659751105 0.05) in cell 399
    min() of nut = 1.8663397369e-12 at location (0.12 0.0995795153436 0.05) in cell 2901
--> FOAM Warning :     functionObjects::volFieldValue mindomain_scalar cannot find required object epsilon
--> FOAM Warning :     functionObjects::volFieldValue mindomain_scalar cannot find required object nuTilda

volFieldValue mindomain_vector write:
    minMag() of U = 0.0355535649877 at location (7.96 0.0995795153436 0.05) in cell 2999

volFieldValue maxdomain_scalar write:
    max() of p = 0.233052863652 at location (0.04 0.0995795153436 0.05) in cell 2900
    max() of k = 0.00497375733612 at location (0.92 0.0917023219868 0.05) in cell 2211
    max() of omega = 9049.39774322 at location (4.44 0.0995795153436 0.05) in cell 2955
    max() of nut = 6.30776279062e-05 at location (1.56 0.0826987945589 0.05) in cell 1719
--> FOAM Warning :     functionObjects::volFieldValue maxdomain_scalar cannot find required object epsilon
--> FOAM Warning :     functionObjects::volFieldValue maxdomain_scalar cannot find required object nuTilda

volFieldValue maxdomain_vector write:
    maxMag() of U = 1.15443879795 at location (7.96 0.0266659751105 0.05) in cell 399

yPlus yplus_stats write:
    patch top y+ : min = 0.864609060503, max = 2.45536315935, average = 0.945060145924

Time = 19s

DILUPBiCGStab:  Solving for Ux, Initial residual = 0.00783100047512, Final residual = 5.43952747529e-09, No Iterations 6
DILUPBiCGStab:  Solving for Uy, Initial residual = 0.156488469307, Final residual = 8.72917275165e-09, No Iterations 8
DICPCG:  Solving for p, Initial residual = 0.0455081662544, Final residual = 1.8248107585e-05, No Iterations 99
DICPCG:  Solving for p, Initial residual = 1.83517530109e-05, Final residual = 1.53670437655e-08, No Iterations 20
DICPCG:  Solving for p, Initial residual = 1.53670154075e-08, Final residual = 5.43848020924e-09, No Iterations 3
time step continuity errors : sum local = 3.1249072123e-09, global = -4.98560203976e-10, cumulative = -3.61814459739e-09
DILUPBiCGStab:  Solving for omega, Initial residual = 0.000105203286692, Final residual = 6.01318993624e-09, No Iterations 3
DILUPBiCGStab:  Solving for k, Initial residual = 0.0422724860816, Final residual = 6.85490639539e-09, No Iterations 5
bounding k, min: -1.41428274203e-08 max: 0.00548932276395 average: 0.00154243622439
ExecutionTime = 0.294186 s  ClockTime = 0 s

--> FOAM Warning :     functionObjects::volFieldValue minmaxdomain_scalar cannot find required object epsilon
--> FOAM Warning :     functionObjects::volFieldValue minmaxdomain_scalar cannot find required object nuTilda


volFieldValue mindomain_scalar write:
    min() of p = 0.000600223538704 at location (7.96 0.0995795153436 0.05) in cell 2999
    min() of k = 6.99449116048e-07 at location (7.96 0.0995795153436 0.05) in cell 2999
    min() of omega = 1.7513752945 at location (7.96 0.0266659751105 0.05) in cell 399
    min() of nut = 7.72923387717e-11 at location (7.96 0.0995795153436 0.05) in cell 2999
--> FOAM Warning :     functionObjects::volFieldValue mindomain_scalar cannot find required object epsilon
--> FOAM Warning :     functionObjects::volFieldValue mindomain_scalar cannot find required object nuTilda

volFieldValue mindomain_vector write:
    minMag() of U = 0.0364823696385 at location (7.96 0.0995795153436 0.05) in cell 2999

volFieldValue maxdomain_scalar write:
    max() of p = 0.240854418278 at location (0.04 0.0995795153436 0.05) in cell 2900
    max() of k = 0.00548932276395 at location (1 0.0917023219868 0.05) in cell 2212
    max() of omega = 9049.39774322 at location (4.44 0.0995795153436 0.05) in cell 2955
    max() of nut = 7.67356728899e-05 at location (1.88 0.0804281101364 0.05) in cell 1623
--> FOAM Warning :     functionObjects::volFieldValue maxdomain_scalar cannot find required object epsilon
--> FOAM Warning :     functionObjects::volFieldValue maxdomain_scalar cannot find required object nuTilda

volFieldValue maxdomain_vector write:
    maxMag() of U = 1.16044911405 at location (7.96 0.0266659751105 0.05) in cell 399

yPlus yplus_stats write:
    patch top y+ : min = 0.875831292075, max = 2.45550442109, average = 0.959181472827

Time = 20s

DILUPBiCGStab:  Solving for Ux, Initial residual = 0.00837995790068, Final residual = 5.35399555559e-09, No Iterations 6
DILUPBiCGStab:  Solving for Uy, Initial residual = 0.142320593955, Final residual = 1.77965706059e-09, No Iterations 9
DICPCG:  Solving for p, Initial residual = 0.0425546802547, Final residual = 4.04422970372e-05, No Iterations 98
DICPCG:  Solving for p, Initial residual = 4.05064684688e-05, Final residual = 3.90342149036e-08, No Iterations 27
DICPCG:  Solving for p, Initial residual = 3.90343166252e-08, Final residual = 8.17867597421e-09, No Iterations 27
time step continuity errors : sum local = 4.54077092478e-09, global = -6.67244159083e-10, cumulative = -4.28538875647e-09
DILUPBiCGStab:  Solving for omega, Initial residual = 0.000105494764795, Final residual = 9.37289237476e-09, No Iterations 3
DILUPBiCGStab:  Solving for k, Initial residual = 0.0383693017261, Final residual = 9.96074553883e-09, No Iterations 5
ExecutionTime = 0.305057 s  ClockTime = 0 s

--> FOAM Warning :     functionObjects::volFieldValue minmaxdomain_scalar cannot find required object epsilon
--> FOAM Warning :     functionObjects::volFieldValue minmaxdomain_scalar cannot find required object nuTilda


volFieldValue mindomain_scalar write:
    min() of p = 0.000635451281637 at location (7.96 0.0995795153436 0.05) in cell 2999
    min() of k = 1.22882842309e-07 at location (0.12 0.0995795153436 0.05) in cell 2901
    min() of omega = 1.77281672544 at location (7.96 0.0197649214991 0.05) in cell 299
    min() of nut = 1.3579118279e-11 at location (0.12 0.0995795153436 0.05) in cell 2901
--> FOAM Warning :     functionObjects::volFieldValue mindomain_scalar cannot find required object epsilon
--> FOAM Warning :     functionObjects::volFieldValue mindomain_scalar cannot find required object nuTilda

volFieldValue mindomain_vector write:
    minMag() of U = 0.0376832427364 at location (7.96 0.0995795153436 0.05) in cell 2999

volFieldValue maxdomain_scalar write:
    max() of p = 0.249626585517 at location (0.04 0.0995795153436 0.05) in cell 2900
    max() of k = 0.00600307436081 at location (1.32 0.0901756596643 0.05) in cell 2116
    max() of omega = 9049.39774322 at location (4.44 0.0995795153436 0.05) in cell 2955
    max() of nut = 9.2619379e-05 at location (2.12 0.0804281101364 0.05) in cell 1626
--> FOAM Warning :     functionObjects::volFieldValue maxdomain_scalar cannot find required object epsilon
--> FOAM Warning :     functionObjects::volFieldValue maxdomain_scalar cannot find required object nuTilda

volFieldValue maxdomain_vector write:
    maxMag() of U = 1.16662883399 at location (7.96 0.0266659751105 0.05) in cell 399

yPlus yplus_stats write:
    patch top y+ : min = 0.890131223188, max = 2.45561303673, average = 0.975862408816

Time = 21s

DILUPBiCGStab:  Solving for Ux, Initial residual = 0.00880504966453, Final residual = 5.56075266402e-09, No Iterations 6
DILUPBiCGStab:  Solving for Uy, Initial residual = 0.129898970512, Final residual = 2.94273317669e-09, No Iterations 9
DICPCG:  Solving for p, Initial residual = 0.0396250982187, Final residual = 1.54700290969e-05, No Iterations 98
DICPCG:  Solving for p, Initial residual = 1.54013452883e-05, Final residual = 1.47479472715e-08, No Iterations 9
DICPCG:  Solving for p, Initial residual = 1.47480171971e-08, Final residual = 9.14257653413e-09, No Iterations 3
time step continuity errors : sum local = 4.93375117626e-09, global = 2.49896898968e-10, cumulative = -4.0354918575e-09
DILUPBiCGStab:  Solving for omega, Initial residual = 0.00010915336844, Final residual = 4.08378930187e-10, No Iterations 4
DILUPBiCGStab:  Solving for k, Initial residual = 0.0344680022151, Final residual = 6.3536975483e-09, No Iterations 5
bounding k, min: -3.80041369671e-08 max: 0.00648776443221 average: 0.00211929115459
ExecutionTime = 0.3155 s  ClockTime = 0 s

--> FOAM Warning :     functionObjects::volFieldValue minmaxdomain_scalar cannot find required object epsilon
--> FOAM Warning :     functionObjects::volFieldValue minmaxdomain_scalar cannot find required object nuTilda


volFieldValue mindomain_scalar write:
    min() of p = 0.000678639431234 at location (7.96 0.0995795153436 0.05) in cell 2999
    min() of k = 8.20590909027e-07 at location (0.2 0.0995795153436 0.05) in cell 2902
    min() of omega = 1.7737283777 at location (7.96 0.0197649214991 0.05) in cell 299
    min() of nut = 9.06790631058e-11 at location (0.2 0.0995795153436 0.05) in cell 2902
--> FOAM Warning :     functionObjects::volFieldValue mindomain_scalar cannot find required object epsilon
--> FOAM Warning :     functionObjects::volFieldValue mindomain_scalar cannot find required object nuTilda

volFieldValue mindomain_vector write:
    minMag() of U = 0.0391181079699 at location (7.96 0.0995795153436 0.05) in cell 2999

volFieldValue maxdomain_scalar write:
    max() of p = 0.259312349451 at location (0.04 0.0995795153436 0.05) in cell 2900
    max() of k = 0.00648776443221 at location (1.48 0.0901756596643 0.05) in cell 2118
    max() of omega = 9049.39774322 at location (4.44 0.0995795153436 0.05) in cell 2955
    max() of nut = 0.000110474765181 at location (2.44 0.0779697837697 0.05) in cell 1530
--> FOAM Warning :     functionObjects::volFieldValue maxdomain_scalar cannot find required object epsilon
--> FOAM Warning :     functionObjects::volFieldValue maxdomain_scalar cannot find required object nuTilda

volFieldValue maxdomain_vector write:
    maxMag() of U = 1.17296312064 at location (7.96 0.0266659751105 0.05) in cell 399

yPlus yplus_stats write:
    patch top y+ : min = 0.906922120272, max = 2.45569505361, average = 0.994442742252

Time = 22s

DILUPBiCGStab:  Solving for Ux, Initial residual = 0.00908949645251, Final residual = 7.22490954351e-09, No Iterations 6
DILUPBiCGStab:  Solving for Uy, Initial residual = 0.118632769445, Final residual = 8.8591153793e-09, No Iterations 8
DICPCG:  Solving for p, Initial residual = 0.0369174738808, Final residual = 2.36157003875e-05, No Iterations 91
DICPCG:  Solving for p, Initial residual = 2.34164612583e-05, Final residual = 1.68806219678e-08, No Iterations 99
DICPCG:  Solving for p, Initial residual = 1.68802429761e-08, Final residual = 3.08520288387e-10, No Iterations 3
time step continuity errors : sum local = 1.62129437765e-10, global = -1.02820333563e-12, cumulative = -4.03652006084e-09
DILUPBiCGStab:  Solving for omega, Initial residual = 0.000106464162964, Final residual = 4.69494252566e-10, No Iterations 4
DILUPBiCGStab:  Solving for k, Initial residual = 0.030665167332, Final residual = 3.6769386959e-09, No Iterations 5
ExecutionTime = 0.330886 s  ClockTime = 0 s

--> FOAM Warning :     functionObjects::volFieldValue minmaxdomain_scalar cannot find required object epsilon
--> FOAM Warning :     functionObjects::volFieldValue minmaxdomain_scalar cannot find required object nuTilda


volFieldValue mindomain_scalar write:
    min() of p = 0.000729927097924 at location (7.96 0.0995795153436 0.05) in cell 2999
    min() of k = 6.53627095179e-08 at location (0.12 0.0995795153436 0.05) in cell 2901
    min() of omega = 1.79406953046 at location (7.96 0.0197649214991 0.05) in cell 299
    min() of nut = 7.22287950786e-12 at location (0.12 0.0995795153436 0.05) in cell 2901
--> FOAM Warning :     functionObjects::volFieldValue mindomain_scalar cannot find required object epsilon
--> FOAM Warning :     functionObjects::volFieldValue mindomain_scalar cannot find required object nuTilda

volFieldValue mindomain_vector write:
    minMag() of U = 0.0407375201883 at location (7.96 0.0995795153436 0.05) in cell 2999

volFieldValue maxdomain_scalar write:
    max() of p = 0.269807524631 at location (0.04 0.0995795153436 0.05) in cell 2900
    max() of k = 0.00692669067433 at location (1.96 0.0885228389537 0.05) in cell 2024
    max() of omega = 9049.39774322 at location (4.44 0.0995795153436 0.05) in cell 2955
    max() of nut = 0.000130776261917 at location (2.76 0.0779697837697 0.05) in cell 1534
--> FOAM Warning :     functionObjects::volFieldValue maxdomain_scalar cannot find required object epsilon
--> FOAM Warning :     functionObjects::volFieldValue maxdomain_scalar cannot find required object nuTilda

volFieldValue maxdomain_vector write:
    maxMag() of U = 1.17942037492 at location (7.96 0.0197649214991 0.05) in cell 299

yPlus yplus_stats write:
    patch top y+ : min = 0.925507028364, max = 2.45575532272, average = 1.01417203347

Time = 23s

DILUPBiCGStab:  Solving for Ux, Initial residual = 0.00920502614607, Final residual = 7.37179596139e-09, No Iterations 6
DILUPBiCGStab:  Solving for Uy, Initial residual = 0.108631705431, Final residual = 6.83708702427e-09, No Iterations 8
DICPCG:  Solving for p, Initial residual = 0.0346457996706, Final residual = 1.9518725871e-05, No Iterations 98
DICPCG:  Solving for p, Initial residual = 1.92866611114e-05, Final residual = 1.77989713098e-08, No Iterations 25
DICPCG:  Solving for p, Initial residual = 1.77989793263e-08, Final residual = 6.81664702894e-09, No Iterations 3
time step continuity errors : sum local = 3.49321047744e-09, global = -2.49312109452e-10, cumulative = -4.28583217029e-09
DILUPBiCGStab:  Solving for omega, Initial residual = 0.000103037639042, Final residual = 5.50935160035e-10, No Iterations 4
DILUPBiCGStab:  Solving for k, Initial residual = 0.0270983595655, Final residual = 5.22003967684e-09, No Iterations 5
bounding k, min: -6.07576674046e-08 max: 0.00735114111152 average: 0.00271768922603
ExecutionTime = 0.340862 s  ClockTime = 0 s

--> FOAM Warning :     functionObjects::volFieldValue minmaxdomain_scalar cannot find required object epsilon
--> FOAM Warning :     functionObjects::volFieldValue minmaxdomain_scalar cannot find required object nuTilda


volFieldValue mindomain_scalar write:
    min() of p = 0.000789376438138 at location (7.96 0.0995795153436 0.05) in cell 2999
    min() of k = 6.87980274421e-07 at location (0.2 0.0995795153436 0.05) in cell 2902
    min() of omega = 1.81585951937 at location (7.96 0.00420484656361 0.05) in cell 99
    min() of nut = 7.60249791139e-11 at location (0.2 0.0995795153436 0.05) in cell 2902
--> FOAM Warning :     functionObjects::volFieldValue mindomain_scalar cannot find required object epsilon
--> FOAM Warning :     functionObjects::volFieldValue mindomain_scalar cannot find required object nuTilda

volFieldValue mindomain_vector write:
    minMag() of U = 0.0424860317701 at location (7.96 0.0995795153436 0.05) in cell 2999

volFieldValue maxdomain_scalar write:
    max() of p = 0.280973890136 at location (0.04 0.0995795153436 0.05) in cell 2900
    max() of k = 0.00735114111152 at location (2.2 0.0885228389537 0.05) in cell 2027
    max() of omega = 9049.39774322 at location (4.44 0.0995795153436 0.05) in cell 2955
    max() of nut = 0.000152904106731 at location (3.16 0.0753083093411 0.05) in cell 1439
--> FOAM Warning :     functionObjects::volFieldValue maxdomain_scalar cannot find required object epsilon
--> FOAM Warning :     functionObjects::volFieldValue maxdomain_scalar cannot find required object nuTilda

volFieldValue maxdomain_vector write:
    maxMag() of U = 1.18681084616 at location (7.96 0.0197649214991 0.05) in cell 299

yPlus yplus_stats write:
    patch top y+ : min = 0.945163639212, max = 2.45579800272, average = 1.03430182397

Time = 24s

DILUPBiCGStab:  Solving for Ux, Initial residual = 0.00915006094478, Final residual = 6.13087067912e-09, No Iterations 6
DILUPBiCGStab:  Solving for Uy, Initial residual = 0.0996782138696, Final residual = 9.3705265494e-09, No Iterations 8
DICPCG:  Solving for p, Initial residual = 0.0325040817502, Final residual = 1.96809235086e-05, No Iterations 98
DICPCG:  Solving for p, Initial residual = 1.93832163424e-05, Final residual = 1.19947306199e-08, No Iterations 12
DICPCG:  Solving for p, Initial residual = 1.19947691729e-08, Final residual = 8.87099339017e-09, No Iterations 12
time step continuity errors : sum local = 4.43998416119e-09, global = -1.4853059469e-10, cumulative = -4.43436276498e-09
DILUPBiCGStab:  Solving for omega, Initial residual = 9.63977340455e-05, Final residual = 6.54109731688e-10, No Iterations 4
DILUPBiCGStab:  Solving for k, Initial residual = 0.0238112183292, Final residual = 2.88119437727e-09, No Iterations 5
ExecutionTime = 0.349728 s  ClockTime = 0 s

--> FOAM Warning :     functionObjects::volFieldValue minmaxdomain_scalar cannot find required object epsilon
--> FOAM Warning :     functionObjects::volFieldValue minmaxdomain_scalar cannot find required object nuTilda


volFieldValue mindomain_scalar write:
    min() of p = 0.000857049650569 at location (7.96 0.0995795153436 0.05) in cell 2999
    min() of k = 4.11083953007e-08 at location (0.12 0.0995795153436 0.05) in cell 2901
    min() of omega = 1.81901994425 at location (7.96 0.00420484656361 0.05) in cell 99
    min() of nut = 4.54266642568e-12 at location (0.12 0.0995795153436 0.05) in cell 2901
--> FOAM Warning :     functionObjects::volFieldValue mindomain_scalar cannot find required object epsilon
--> FOAM Warning :     functionObjects::volFieldValue mindomain_scalar cannot find required object nuTilda

volFieldValue mindomain_vector write:
    minMag() of U = 0.0443067726828 at location (7.96 0.0995795153436 0.05) in cell 2999

volFieldValue maxdomain_scalar write:
    max() of p = 0.292649171757 at location (0.04 0.0995795153436 0.05) in cell 2900
    max() of k = 0.00774499658854 at location (2.92 0.086733434538 0.05) in cell 1936
    max() of omega = 9049.39774322 at location (4.44 0.0995795153436 0.05) in cell 2955
    max() of nut = 0.000176901153619 at location (3.56 0.0753083093411 0.05) in cell 1444
--> FOAM Warning :     functionObjects::volFieldValue maxdomain_scalar cannot find required object epsilon
--> FOAM Warning :     functionObjects::volFieldValue maxdomain_scalar cannot find required object nuTilda

volFieldValue maxdomain_vector write:
    maxMag() of U = 1.19423194466 at location (7.96 0.0197649214991 0.05) in cell 299

yPlus yplus_stats write:
    patch top y+ : min = 0.965207242862, max = 2.45582643064, average = 1.05414814152

Time = 25s

DILUPBiCGStab:  Solving for Ux, Initial residual = 0.00894756788583, Final residual = 3.57589764508e-09, No Iterations 6
DILUPBiCGStab:  Solving for Uy, Initial residual = 0.0914710905362, Final residual = 5.25965007383e-09, No Iterations 8
DICPCG:  Solving for p, Initial residual = 0.0304621522378, Final residual = 1.99449875029e-05, No Iterations 98
DICPCG:  Solving for p, Initial residual = 1.96056679359e-05, Final residual = 1.80795051628e-08, No Iterations 11
DICPCG:  Solving for p, Initial residual = 1.80795410961e-08, Final residual = 6.54140457821e-09, No Iterations 3
time step continuity errors : sum local = 3.19594322358e-09, global = 2.13571940117e-10, cumulative = -4.22079082486e-09
DILUPBiCGStab:  Solving for omega, Initial residual = 8.90539292632e-05, Final residual = 7.65145379853e-10, No Iterations 4
DILUPBiCGStab:  Solving for k, Initial residual = 0.020856725812, Final residual = 2.35253256965e-09, No Iterations 5
bounding k, min: -6.65753922439e-08 max: 0.0080992300974 average: 0.00327828313444
ExecutionTime = 0.359648 s  ClockTime = 0 s

--> FOAM Warning :     functionObjects::volFieldValue minmaxdomain_scalar cannot find required object epsilon
--> FOAM Warning :     functionObjects::volFieldValue minmaxdomain_scalar cannot find required object nuTilda


volFieldValue mindomain_scalar write:
    min() of p = 0.000933064487717 at location (7.96 0.0995795153436 0.05) in cell 2999
    min() of k = 5.79386470496e-07 at location (0.2 0.0995795153436 0.05) in cell 2902
    min() of omega = 1.82467032585 at location (7.96 0.00420484656361 0.05) in cell 99
    min() of nut = 6.40248651829e-11 at location (0.2 0.0995795153436 0.05) in cell 2902
--> FOAM Warning :     functionObjects::volFieldValue mindomain_scalar cannot find required object epsilon
--> FOAM Warning :     functionObjects::volFieldValue mindomain_scalar cannot find required object nuTilda

volFieldValue mindomain_vector write:
    minMag() of U = 0.0461478163986 at location (7.96 0.0995795153436 0.05) in cell 2999

volFieldValue maxdomain_scalar write:
    max() of p = 0.304654467903 at location (0.04 0.0995795153436 0.05) in cell 2900
    max() of k = 0.0080992300974 at location (3.16 0.086733434538 0.05) in cell 1939
    max() of omega = 9049.39774322 at location (4.44 0.0995795153436 0.05) in cell 2955
    max() of nut = 0.000202992666523 at location (4.04 0.0724268993585 0.05) in cell 1350
--> FOAM Warning :     functionObjects::volFieldValue maxdomain_scalar cannot find required object epsilon
--> FOAM Warning :     functionObjects::volFieldValue maxdomain_scalar cannot find required object nuTilda

volFieldValue maxdomain_vector write:
    maxMag() of U = 1.20125715683 at location (7.96 0.0197649214991 0.05) in cell 299

yPlus yplus_stats write:
    patch top y+ : min = 0.985060125296, max = 2.45584347356, average = 1.07315741227

Time = 26s

DILUPBiCGStab:  Solving for Ux, Initial residual = 0.00864038880745, Final residual = 2.70114338781e-09, No Iterations 6
DILUPBiCGStab:  Solving for Uy, Initial residual = 0.0839744988319, Final residual = 4.0042206684e-09, No Iterations 8
DICPCG:  Solving for p, Initial residual = 0.0285992133562, Final residual = 1.85843923348e-05, No Iterations 98
DICPCG:  Solving for p, Initial residual = 1.8225915788e-05, Final residual = 1.18996185205e-08, No Iterations 11
DICPCG:  Solving for p, Initial residual = 1.18996805799e-08, Final residual = 7.41529307161e-09, No Iterations 3
time step continuity errors : sum local = 3.53912362987e-09, global = -6.00850727729e-11, cumulative = -4.28087589763e-09
DILUPBiCGStab:  Solving for omega, Initial residual = 8.06258361843e-05, Final residual = 8.76025891437e-10, No Iterations 4
DILUPBiCGStab:  Solving for k, Initial residual = 0.0182371536052, Final residual = 2.06384080541e-09, No Iterations 5
ExecutionTime = 0.368312 s  ClockTime = 0 s

--> FOAM Warning :     functionObjects::volFieldValue minmaxdomain_scalar cannot find required object epsilon
--> FOAM Warning :     functionObjects::volFieldValue minmaxdomain_scalar cannot find required object nuTilda


volFieldValue mindomain_scalar write:
    min() of p = 0.0010175895073 at location (7.96 0.0995795153436 0.05) in cell 2999
    min() of k = 3.96620077859e-08 at location (0.12 0.0995795153436 0.05) in cell 2901
    min() of omega = 1.83322463981 at location (7.96 0.00420484656361 0.05) in cell 99
    min() of nut = 4.38283396435e-12 at location (0.12 0.0995795153436 0.05) in cell 2901
--> FOAM Warning :     functionObjects::volFieldValue mindomain_scalar cannot find required object epsilon
--> FOAM Warning :     functionObjects::volFieldValue mindomain_scalar cannot find required object nuTilda

volFieldValue mindomain_vector write:
    minMag() of U = 0.0479663562608 at location (7.96 0.0995795153436 0.05) in cell 2999

volFieldValue maxdomain_scalar write:
    max() of p = 0.316795223016 at location (0.04 0.0995795153436 0.05) in cell 2900
    max() of k = 0.00842760468948 at location (3.88 0.0847961595858 0.05) in cell 1848
    max() of omega = 9049.39774322 at location (4.44 0.0995795153436 0.05) in cell 2955
    max() of nut = 0.000230192883605 at location (4.52 0.069307379066 0.05) in cell 1256
--> FOAM Warning :     functionObjects::volFieldValue maxdomain_scalar cannot find required object epsilon
--> FOAM Warning :     functionObjects::volFieldValue maxdomain_scalar cannot find required object nuTilda

volFieldValue maxdomain_vector write:
    maxMag() of U = 1.20903066011 at location (7.96 0.012293587357 0.05) in cell 199

yPlus yplus_stats write:
    patch top y+ : min = 1.00428549379, max = 2.45585152117, average = 1.09093257569

Time = 27s

DILUPBiCGStab:  Solving for Ux, Initial residual = 0.00824404518582, Final residual = 9.46411557436e-09, No Iterations 6
DILUPBiCGStab:  Solving for Uy, Initial residual = 0.0771033948414, Final residual = 7.31847732728e-09, No Iterations 8
DICPCG:  Solving for p, Initial residual = 0.026952995308, Final residual = 1.74952208893e-05, No Iterations 98
DICPCG:  Solving for p, Initial residual = 1.71414965006e-05, Final residual = 1.45131697546e-08, No Iterations 33
DICPCG:  Solving for p, Initial residual = 1.45131885475e-08, Final residual = 7.20395024879e-09, No Iterations 3
time step continuity errors : sum local = 3.35259630499e-09, global = -2.58780630101e-10, cumulative = -4.53965652773e-09
DILUPBiCGStab:  Solving for omega, Initial residual = 7.23844532156e-05, Final residual = 9.77362100068e-10, No Iterations 4
DILUPBiCGStab:  Solving for k, Initial residual = 0.0159294332002, Final residual = 1.82587814132e-09, No Iterations 5
bounding k, min: -6.16122027399e-08 max: 0.00871399341998 average: 0.00376529186173
ExecutionTime = 0.377321 s  ClockTime = 0 s

--> FOAM Warning :     functionObjects::volFieldValue minmaxdomain_scalar cannot find required object epsilon
--> FOAM Warning :     functionObjects::volFieldValue minmaxdomain_scalar cannot find required object nuTilda


volFieldValue mindomain_scalar write:
    min() of p = 0.00111076994843 at location (7.96 0.0995795153436 0.05) in cell 2999
    min() of k = 4.97777070961e-07 at location (0.2 0.0995795153436 0.05) in cell 2902
    min() of omega = 1.85365592665 at location (7.96 0.00420484656361 0.05) in cell 99
    min() of nut = 5.50066518332e-11 at location (0.2 0.0995795153436 0.05) in cell 2902
--> FOAM Warning :     functionObjects::volFieldValue mindomain_scalar cannot find required object epsilon
--> FOAM Warning :     functionObjects::volFieldValue mindomain_scalar cannot find required object nuTilda

volFieldValue mindomain_vector write:
    minMag() of U = 0.0497315105939 at location (7.96 0.0995795153436 0.05) in cell 2999

volFieldValue maxdomain_scalar write:
    max() of p = 0.328861172998 at location (0.04 0.0995795153436 0.05) in cell 2900
    max() of k = 0.00871399341998 at location (4.2 0.0847961595858 0.05) in cell 1852
    max() of omega = 9049.39774322 at location (4.44 0.0995795153436 0.05) in cell 2955
    max() of nut = 0.000259274660858 at location (4.92 0.069307379066 0.05) in cell 1261
--> FOAM Warning :     functionObjects::volFieldValue maxdomain_scalar cannot find required object epsilon
--> FOAM Warning :     functionObjects::volFieldValue maxdomain_scalar cannot find required object nuTilda

volFieldValue maxdomain_vector write:
    maxMag() of U = 1.21675460404 at location (7.96 0.012293587357 0.05) in cell 199

yPlus yplus_stats write:
    patch top y+ : min = 1.02260120441, max = 2.45585261148, average = 1.10723756061

Time = 28s

DILUPBiCGStab:  Solving for Ux, Initial residual = 0.007820786569, Final residual = 9.26110320734e-09, No Iterations 6
DILUPBiCGStab:  Solving for Uy, Initial residual = 0.0709574259947, Final residual = 5.83620180799e-09, No Iterations 8
DICPCG:  Solving for p, Initial residual = 0.0255588408655, Final residual = 1.54707684705e-05, No Iterations 98
DICPCG:  Solving for p, Initial residual = 1.51638583683e-05, Final residual = 1.24431000234e-08, No Iterations 10
[...]

yPlus yplus_stats write:
    patch top y+ : min = 1.17899801621, max = 2.45578284255, average = 1.22047188955

Time = 994s

DILUPBiCGStab:  Solving for Ux, Initial residual = 1.14217511809e-09, Final residual = 3.45242414307e-12, No Iterations 3
DILUPBiCGStab:  Solving for Uy, Initial residual = 2.12196719872e-08, Final residual = 3.61488627392e-10, No Iterations 3
DICPCG:  Solving for p, Initial residual = 9.61168663366e-09, Final residual = 1.68398138165e-09, No Iterations 3
DICPCG:  Solving for p, Initial residual = 1.68396012803e-09, Final residual = 1.12668473341e-09, No Iterations 3
DICPCG:  Solving for p, Initial residual = 1.12695242533e-09, Final residual = 5.67620881683e-10, No Iterations 3
time step continuity errors : sum local = 1.17697249526e-10, global = 6.83888484737e-12, cumulative = 2.17675775378e-08
DILUPBiCGStab:  Solving for omega, Initial residual = 5.94443785996e-10, Final residual = 3.4128748094e-14, No Iterations 3
DILUPBiCGStab:  Solving for k, Initial residual = 8.69949921848e-07, Final residual = 1.94310239418e-14, No Iterations 3
ExecutionTime = 6.048841 s  ClockTime = 6 s

--> FOAM Warning :     functionObjects::volFieldValue minmaxdomain_scalar cannot find required object epsilon
--> FOAM Warning :     functionObjects::volFieldValue minmaxdomain_scalar cannot find required object nuTilda


volFieldValue mindomain_scalar write:
    min() of p = 0.00129854817423 at location (7.96 0.00420484656361 0.05) in cell 99
    min() of k = 1.23251505681e-07 at location (0.12 0.0995795153436 0.05) in cell 2901
    min() of omega = 2.48221971153 at location (4.28 0.00420484656361 0.05) in cell 53
    min() of nut = 1.36198572743e-11 at location (0.12 0.0995795153436 0.05) in cell 2901
--> FOAM Warning :     functionObjects::volFieldValue mindomain_scalar cannot find required object epsilon
--> FOAM Warning :     functionObjects::volFieldValue mindomain_scalar cannot find required object nuTilda

volFieldValue mindomain_vector write:
    minMag() of U = 0.0661015387814 at location (0.36 0.0995795153436 0.05) in cell 2904

volFieldValue maxdomain_scalar write:
    max() of p = 0.320892093988 at location (0.04 0.0995795153436 0.05) in cell 2900
    max() of k = 0.00867008060859 at location (7.88 0.086733434538 0.05) in cell 1998
    max() of omega = 9049.39774322 at location (4.44 0.0995795153436 0.05) in cell 2955
    max() of nut = 0.000591406832681 at location (7.96 0.0389280343044 0.05) in cell 599
--> FOAM Warning :     functionObjects::volFieldValue maxdomain_scalar cannot find required object epsilon
--> FOAM Warning :     functionObjects::volFieldValue maxdomain_scalar cannot find required object nuTilda

volFieldValue maxdomain_vector write:
    maxMag() of U = 1.17743432502 at location (4.92 0.00420484656361 0.05) in cell 61

yPlus yplus_stats write:
    patch top y+ : min = 1.17899801211, max = 2.45578283482, average = 1.22047189733

Time = 995s

DILUPBiCGStab:  Solving for Ux, Initial residual = 1.14215366864e-09, Final residual = 3.43959998491e-12, No Iterations 3
DILUPBiCGStab:  Solving for Uy, Initial residual = 2.12125491317e-08, Final residual = 3.49583158772e-10, No Iterations 3
DICPCG:  Solving for p, Initial residual = 9.62381219677e-09, Final residual = 1.68387500896e-09, No Iterations 3
DICPCG:  Solving for p, Initial residual = 1.683997925e-09, Final residual = 1.12311509109e-09, No Iterations 3
DICPCG:  Solving for p, Initial residual = 1.12321893087e-09, Final residual = 5.64132662987e-10, No Iterations 3
time step continuity errors : sum local = 1.16987627056e-10, global = 6.92721699257e-12, cumulative = 2.17745047547e-08
DILUPBiCGStab:  Solving for omega, Initial residual = 5.94444530867e-10, Final residual = 3.4128571744e-14, No Iterations 3
DILUPBiCGStab:  Solving for k, Initial residual = 9.29543900945e-08, Final residual = 3.54400180653e-14, No Iterations 3
bounding k, min: -1.28445866065e-08 max: 0.0086700806086 average: 0.00431885757152
ExecutionTime = 6.054106 s  ClockTime = 6 s

--> FOAM Warning :     functionObjects::volFieldValue minmaxdomain_scalar cannot find required object epsilon
--> FOAM Warning :     functionObjects::volFieldValue minmaxdomain_scalar cannot find required object nuTilda


volFieldValue mindomain_scalar write:
    min() of p = 0.0012985481742 at location (7.96 0.00420484656361 0.05) in cell 99
    min() of k = 4.69049798757e-07 at location (0.2 0.0995795153436 0.05) in cell 2902
    min() of omega = 2.48221971153 at location (4.28 0.00420484656361 0.05) in cell 53
    min() of nut = 5.18321563563e-11 at location (0.2 0.0995795153436 0.05) in cell 2902
--> FOAM Warning :     functionObjects::volFieldValue mindomain_scalar cannot find required object epsilon
--> FOAM Warning :     functionObjects::volFieldValue mindomain_scalar cannot find required object nuTilda

volFieldValue mindomain_vector write:
    minMag() of U = 0.0661015392417 at location (0.36 0.0995795153436 0.05) in cell 2904

volFieldValue maxdomain_scalar write:
    max() of p = 0.320892092581 at location (0.04 0.0995795153436 0.05) in cell 2900
    max() of k = 0.0086700806086 at location (7.88 0.086733434538 0.05) in cell 1998
    max() of omega = 9049.39774322 at location (4.44 0.0995795153436 0.05) in cell 2955
    max() of nut = 0.00059140683268 at location (7.96 0.0389280343044 0.05) in cell 599
--> FOAM Warning :     functionObjects::volFieldValue maxdomain_scalar cannot find required object epsilon
--> FOAM Warning :     functionObjects::volFieldValue maxdomain_scalar cannot find required object nuTilda

volFieldValue maxdomain_vector write:
    maxMag() of U = 1.17743432503 at location (4.92 0.00420484656361 0.05) in cell 61

yPlus yplus_stats write:
    patch top y+ : min = 1.17899801621, max = 2.45578284255, average = 1.22047188955

Time = 996s

DILUPBiCGStab:  Solving for Ux, Initial residual = 1.14195171539e-09, Final residual = 3.44039693275e-12, No Iterations 3
DILUPBiCGStab:  Solving for Uy, Initial residual = 2.12088837526e-08, Final residual = 3.88382260129e-10, No Iterations 3
DICPCG:  Solving for p, Initial residual = 9.6458412562e-09, Final residual = 1.68544178751e-09, No Iterations 3
DICPCG:  Solving for p, Initial residual = 1.68554175215e-09, Final residual = 1.12748323988e-09, No Iterations 3
DICPCG:  Solving for p, Initial residual = 1.12780399161e-09, Final residual = 5.67874766988e-10, No Iterations 3
time step continuity errors : sum local = 1.17764388017e-10, global = 7.00663373871e-12, cumulative = 2.17815113885e-08
DILUPBiCGStab:  Solving for omega, Initial residual = 5.94443451548e-10, Final residual = 3.41279522514e-14, No Iterations 3
DILUPBiCGStab:  Solving for k, Initial residual = 8.69949883375e-07, Final residual = 1.95449761077e-14, No Iterations 3
ExecutionTime = 6.058929 s  ClockTime = 6 s

--> FOAM Warning :     functionObjects::volFieldValue minmaxdomain_scalar cannot find required object epsilon
--> FOAM Warning :     functionObjects::volFieldValue minmaxdomain_scalar cannot find required object nuTilda


volFieldValue mindomain_scalar write:
    min() of p = 0.00129854817418 at location (7.96 0.00420484656361 0.05) in cell 99
    min() of k = 1.2325150568e-07 at location (0.12 0.0995795153436 0.05) in cell 2901
    min() of omega = 2.48221971152 at location (4.28 0.00420484656361 0.05) in cell 53
    min() of nut = 1.36198572742e-11 at location (0.12 0.0995795153436 0.05) in cell 2901
--> FOAM Warning :     functionObjects::volFieldValue mindomain_scalar cannot find required object epsilon
--> FOAM Warning :     functionObjects::volFieldValue mindomain_scalar cannot find required object nuTilda

volFieldValue mindomain_vector write:
    minMag() of U = 0.0661015387815 at location (0.36 0.0995795153436 0.05) in cell 2904

volFieldValue maxdomain_scalar write:
    max() of p = 0.320892093984 at location (0.04 0.0995795153436 0.05) in cell 2900
    max() of k = 0.00867008060861 at location (7.88 0.086733434538 0.05) in cell 1998
    max() of omega = 9049.39774322 at location (4.44 0.0995795153436 0.05) in cell 2955
    max() of nut = 0.00059140683268 at location (7.96 0.0389280343044 0.05) in cell 599
--> FOAM Warning :     functionObjects::volFieldValue maxdomain_scalar cannot find required object epsilon
--> FOAM Warning :     functionObjects::volFieldValue maxdomain_scalar cannot find required object nuTilda

volFieldValue maxdomain_vector write:
    maxMag() of U = 1.17743432503 at location (4.92 0.00420484656361 0.05) in cell 61

yPlus yplus_stats write:
    patch top y+ : min = 1.17899801211, max = 2.45578283482, average = 1.22047189733

Time = 997s

DILUPBiCGStab:  Solving for Ux, Initial residual = 1.14192802758e-09, Final residual = 3.43869595859e-12, No Iterations 3
DILUPBiCGStab:  Solving for Uy, Initial residual = 2.12346350693e-08, Final residual = 3.32491130313e-10, No Iterations 3
DICPCG:  Solving for p, Initial residual = 9.6148267126e-09, Final residual = 1.68325721188e-09, No Iterations 3
DICPCG:  Solving for p, Initial residual = 1.68344607878e-09, Final residual = 1.12283384004e-09, No Iterations 3
DICPCG:  Solving for p, Initial residual = 1.12291690235e-09, Final residual = 5.64502162504e-10, No Iterations 3
time step continuity errors : sum local = 1.17072691107e-10, global = 7.07738437082e-12, cumulative = 2.17885887729e-08
DILUPBiCGStab:  Solving for omega, Initial residual = 5.94443937032e-10, Final residual = 3.41285905588e-14, No Iterations 3
DILUPBiCGStab:  Solving for k, Initial residual = 9.29543838598e-08, Final residual = 3.61455914907e-14, No Iterations 3
bounding k, min: -1.28445866068e-08 max: 0.00867008060862 average: 0.00431885757152
ExecutionTime = 6.063444 s  ClockTime = 6 s

--> FOAM Warning :     functionObjects::volFieldValue minmaxdomain_scalar cannot find required object epsilon
--> FOAM Warning :     functionObjects::volFieldValue minmaxdomain_scalar cannot find required object nuTilda


volFieldValue mindomain_scalar write:
    min() of p = 0.00129854817416 at location (7.96 0.00420484656361 0.05) in cell 99
    min() of k = 4.69049798757e-07 at location (0.2 0.0995795153436 0.05) in cell 2902
    min() of omega = 2.48221971152 at location (4.28 0.00420484656361 0.05) in cell 53
    min() of nut = 5.18321563563e-11 at location (0.2 0.0995795153436 0.05) in cell 2902
--> FOAM Warning :     functionObjects::volFieldValue mindomain_scalar cannot find required object epsilon
--> FOAM Warning :     functionObjects::volFieldValue mindomain_scalar cannot find required object nuTilda

volFieldValue mindomain_vector write:
    minMag() of U = 0.0661015392417 at location (0.36 0.0995795153436 0.05) in cell 2904

volFieldValue maxdomain_scalar write:
    max() of p = 0.320892092577 at location (0.04 0.0995795153436 0.05) in cell 2900
    max() of k = 0.00867008060862 at location (7.88 0.086733434538 0.05) in cell 1998
    max() of omega = 9049.39774322 at location (4.44 0.0995795153436 0.05) in cell 2955
    max() of nut = 0.000591406832679 at location (7.96 0.0389280343044 0.05) in cell 599
--> FOAM Warning :     functionObjects::volFieldValue maxdomain_scalar cannot find required object epsilon
--> FOAM Warning :     functionObjects::volFieldValue maxdomain_scalar cannot find required object nuTilda

volFieldValue maxdomain_vector write:
    maxMag() of U = 1.17743432503 at location (4.92 0.00420484656361 0.05) in cell 61

yPlus yplus_stats write:
    patch top y+ : min = 1.17899801621, max = 2.45578284255, average = 1.22047188955

Time = 998s

DILUPBiCGStab:  Solving for Ux, Initial residual = 1.14173114e-09, Final residual = 3.44007443622e-12, No Iterations 3
DILUPBiCGStab:  Solving for Uy, Initial residual = 2.11959104138e-08, Final residual = 4.1537643087e-10, No Iterations 3
DICPCG:  Solving for p, Initial residual = 9.65600259614e-09, Final residual = 1.68567248401e-09, No Iterations 3
DICPCG:  Solving for p, Initial residual = 1.68566352756e-09, Final residual = 1.12772767838e-09, No Iterations 3
DICPCG:  Solving for p, Initial residual = 1.12803472124e-09, Final residual = 5.67995160543e-10, No Iterations 3
time step continuity errors : sum local = 1.17788141183e-10, global = 7.13948277237e-12, cumulative = 2.17957282556e-08
DILUPBiCGStab:  Solving for omega, Initial residual = 5.94443097518e-10, Final residual = 3.41280494619e-14, No Iterations 3
DILUPBiCGStab:  Solving for k, Initial residual = 8.69949851238e-07, Final residual = 1.9638849304e-14, No Iterations 3
ExecutionTime = 6.067876 s  ClockTime = 6 s

--> FOAM Warning :     functionObjects::volFieldValue minmaxdomain_scalar cannot find required object epsilon
--> FOAM Warning :     functionObjects::volFieldValue minmaxdomain_scalar cannot find required object nuTilda


volFieldValue mindomain_scalar write:
    min() of p = 0.00129854817413 at location (7.96 0.00420484656361 0.05) in cell 99
    min() of k = 1.2325150568e-07 at location (0.12 0.0995795153436 0.05) in cell 2901
    min() of omega = 2.48221971152 at location (4.28 0.00420484656361 0.05) in cell 53
    min() of nut = 1.36198572742e-11 at location (0.12 0.0995795153436 0.05) in cell 2901
--> FOAM Warning :     functionObjects::volFieldValue mindomain_scalar cannot find required object epsilon
--> FOAM Warning :     functionObjects::volFieldValue mindomain_scalar cannot find required object nuTilda

volFieldValue mindomain_vector write:
    minMag() of U = 0.0661015387816 at location (0.36 0.0995795153436 0.05) in cell 2904

volFieldValue maxdomain_scalar write:
    max() of p = 0.32089209398 at location (0.04 0.0995795153436 0.05) in cell 2900
    max() of k = 0.00867008060863 at location (7.88 0.086733434538 0.05) in cell 1998
    max() of omega = 9049.39774322 at location (4.44 0.0995795153436 0.05) in cell 2955
    max() of nut = 0.000591406832678 at location (7.96 0.0389280343044 0.05) in cell 599
--> FOAM Warning :     functionObjects::volFieldValue maxdomain_scalar cannot find required object epsilon
--> FOAM Warning :     functionObjects::volFieldValue maxdomain_scalar cannot find required object nuTilda

volFieldValue maxdomain_vector write:
    maxMag() of U = 1.17743432503 at location (4.92 0.00420484656361 0.05) in cell 61

yPlus yplus_stats write:
    patch top y+ : min = 1.17899801211, max = 2.45578283482, average = 1.22047189734

Time = 999s

DILUPBiCGStab:  Solving for Ux, Initial residual = 1.14171552351e-09, Final residual = 3.43629116444e-12, No Iterations 3
DILUPBiCGStab:  Solving for Uy, Initial residual = 2.12512835052e-08, Final residual = 3.12820554448e-10, No Iterations 3
DICPCG:  Solving for p, Initial residual = 9.61412626734e-09, Final residual = 1.68289761523e-09, No Iterations 3
DICPCG:  Solving for p, Initial residual = 1.68308062937e-09, Final residual = 1.12261406306e-09, No Iterations 3
DICPCG:  Solving for p, Initial residual = 1.12268808557e-09, Final residual = 5.64610545008e-10, No Iterations 3
time step continuity errors : sum local = 1.17066811558e-10, global = 7.1931629944e-12, cumulative = 2.18029214186e-08
DILUPBiCGStab:  Solving for omega, Initial residual = 5.94443288363e-10, Final residual = 3.41290453947e-14, No Iterations 3
DILUPBiCGStab:  Solving for k, Initial residual = 9.29543649184e-08, Final residual = 3.63902155162e-14, No Iterations 3
bounding k, min: -1.28445866069e-08 max: 0.00867008060863 average: 0.00431885757151
ExecutionTime = 6.07301 s  ClockTime = 6 s

--> FOAM Warning :     functionObjects::volFieldValue minmaxdomain_scalar cannot find required object epsilon
--> FOAM Warning :     functionObjects::volFieldValue minmaxdomain_scalar cannot find required object nuTilda


volFieldValue mindomain_scalar write:
    min() of p = 0.00129854817411 at location (7.96 0.00420484656361 0.05) in cell 99
    min() of k = 4.69049798756e-07 at location (0.2 0.0995795153436 0.05) in cell 2902
    min() of omega = 2.48221971152 at location (4.28 0.00420484656361 0.05) in cell 53
    min() of nut = 5.18321563563e-11 at location (0.2 0.0995795153436 0.05) in cell 2902
--> FOAM Warning :     functionObjects::volFieldValue mindomain_scalar cannot find required object epsilon
--> FOAM Warning :     functionObjects::volFieldValue mindomain_scalar cannot find required object nuTilda

volFieldValue mindomain_vector write:
    minMag() of U = 0.0661015392419 at location (0.36 0.0995795153436 0.05) in cell 2904

volFieldValue maxdomain_scalar write:
    max() of p = 0.320892092573 at location (0.04 0.0995795153436 0.05) in cell 2900
    max() of k = 0.00867008060863 at location (7.88 0.086733434538 0.05) in cell 1998
    max() of omega = 9049.39774322 at location (4.44 0.0995795153436 0.05) in cell 2955
    max() of nut = 0.000591406832677 at location (7.96 0.0389280343044 0.05) in cell 599
--> FOAM Warning :     functionObjects::volFieldValue maxdomain_scalar cannot find required object epsilon
--> FOAM Warning :     functionObjects::volFieldValue maxdomain_scalar cannot find required object nuTilda

volFieldValue maxdomain_vector write:
    maxMag() of U = 1.17743432503 at location (4.92 0.00420484656361 0.05) in cell 61

yPlus yplus_stats write:
    patch top y+ : min = 1.17899801621, max = 2.45578284255, average = 1.22047188955

Time = 1000s

DILUPBiCGStab:  Solving for Ux, Initial residual = 1.14152037622e-09, Final residual = 3.43720947687e-12, No Iterations 3
DILUPBiCGStab:  Solving for Uy, Initial residual = 2.11819302916e-08, Final residual = 4.80964214798e-10, No Iterations 3
DICPCG:  Solving for p, Initial residual = 9.6871365135e-09, Final residual = 1.68678643991e-09, No Iterations 3
DICPCG:  Solving for p, Initial residual = 1.68671749162e-09, Final residual = 1.12752562181e-09, No Iterations 3
DICPCG:  Solving for p, Initial residual = 1.12788355981e-09, Final residual = 5.68127579209e-10, No Iterations 3
time step continuity errors : sum local = 1.17798013702e-10, global = 7.23779347817e-12, cumulative = 2.18101592121e-08
DILUPBiCGStab:  Solving for omega, Initial residual = 5.94442614657e-10, Final residual = 3.41280627092e-14, No Iterations 3
DILUPBiCGStab:  Solving for k, Initial residual = 8.69949828966e-07, Final residual = 1.97095105795e-14, No Iterations 3
ExecutionTime = 6.079224 s  ClockTime = 6 s

--> FOAM Warning :     functionObjects::volFieldValue minmaxdomain_scalar cannot find required object epsilon
--> FOAM Warning :     functionObjects::volFieldValue minmaxdomain_scalar cannot find required object nuTilda


volFieldValue mindomain_scalar write:
    min() of p = 0.00129854817409 at location (7.96 0.00420484656361 0.05) in cell 99
    min() of k = 1.2325150568e-07 at location (0.12 0.0995795153436 0.05) in cell 2901
    min() of omega = 2.48221971152 at location (4.28 0.00420484656361 0.05) in cell 53
    min() of nut = 1.36198572742e-11 at location (0.12 0.0995795153436 0.05) in cell 2901
--> FOAM Warning :     functionObjects::volFieldValue mindomain_scalar cannot find required object epsilon
--> FOAM Warning :     functionObjects::volFieldValue mindomain_scalar cannot find required object nuTilda

volFieldValue mindomain_vector write:
    minMag() of U = 0.0661015387818 at location (0.36 0.0995795153436 0.05) in cell 2904

volFieldValue maxdomain_scalar write:
    max() of p = 0.320892093976 at location (0.04 0.0995795153436 0.05) in cell 2900
    max() of k = 0.00867008060864 at location (7.88 0.086733434538 0.05) in cell 1998
    max() of omega = 9049.39774322 at location (4.44 0.0995795153436 0.05) in cell 2955
    max() of nut = 0.000591406832676 at location (7.96 0.0389280343044 0.05) in cell 599
--> FOAM Warning :     functionObjects::volFieldValue maxdomain_scalar cannot find required object epsilon
--> FOAM Warning :     functionObjects::volFieldValue maxdomain_scalar cannot find required object nuTilda

volFieldValue maxdomain_vector write:
    maxMag() of U = 1.17743432503 at location (4.92 0.00420484656361 0.05) in cell 61

yPlus yplus_stats write:
    patch top y+ : min = 1.17899801211, max = 2.45578283482, average = 1.22047189734

End

