New entry numberOfSubdomains 4;

/*---------------------------------------------------------------------------*\
  =========                 |
  \\      /  F ield         | OpenFOAM: The Open Source CFD Toolbox
   \\    /   O peration     | Website:  https://openfoam.org
    \\  /    A nd           | Version:  12
     \\/     M anipulation  |
\*---------------------------------------------------------------------------*/
Build  : 12-86e126a7bc4d
Exec   : foamRun
Date   : Jun 22 2026
Time   : 09:32:15
Host   : "NotebookdoDan"
PID    : 29729
I/O    : uncollated
Case   : /home/danilom/OpenFOAM/danilom-12/run/GT1/turbulent_wedge_Viscoso
nProcs : 1
sigFpe : Enabling floating point exception trapping (FOAM_SIGFPE).
fileModificationChecking : Monitoring run-time modified files using timeStampMaster (fileModificationSkew 10)
allowSystemOperations : Allowing user-supplied system call operations

// * * * * * * * * * * * * * * * * * * * * * * * * * * * * * * * * * * * * * //
Create time

Create mesh for time = 0

Selecting solver incompressibleFluid
Selecting viscosity model constant
Selecting turbulence model type RAS
Selecting RAS turbulence model kOmega2006
RAS
{
    RASModel        kOmega2006;
    turbulence      on;
    printCoeffs     on;
    betaStar        0.09;
    beta0           0.0708;
    gamma           0.52;
    Clim            0.875;
    sigmaDo         0.125;
    alphaK          0.6;
    alphaOmega      0.5;
}

No MRF models present


SIMPLE: No convergence criteria found


SIMPLE: Operating solver in steady-state mode with 1 outer corrector
SIMPLE: Operating solver in SIMPLE mode



Starting time loop

    - selecting all cells
    - selected 3000 cell(s) with volume 0.0013959798681


    - selecting all cells
    - selected 3000 cell(s) with volume 0.0013959798681


    - selecting all cells
    - selected 3000 cell(s) with volume 0.0013959798681


    - selecting all cells
    - selected 3000 cell(s) with volume 0.0013959798681


    - selecting all cells
    - selected 3000 cell(s) with volume 0.0013959798681


    - selecting all cells
    - selected 3000 cell(s) with volume 0.0013959798681


wallShearStress wallShearStress1:
    processing all wall patches

--> FOAM Warning :     functionObjects::volFieldValue minmaxdomain_scalar cannot find required object epsilon
--> FOAM Warning :     functionObjects::volFieldValue minmaxdomain_scalar cannot find required object nuTilda


volFieldValue mindomain_scalar write:
    min() of p = 0 at location (0.04 0.00560560819348 0.1) in cell 0
    min() of k = 0.00015 at location (0.04 0.00560560819348 0.1) in cell 0
    min() of omega = 7.5 at location (0.04 0.00560560819348 0.1) in cell 0
    min() of nut = 2e-05 at location (0.04 0.00560560819348 0.1) in cell 0
--> FOAM Warning :     functionObjects::volFieldValue mindomain_scalar cannot find required object epsilon
--> FOAM Warning :     functionObjects::volFieldValue mindomain_scalar cannot find required object nuTilda

volFieldValue mindomain_vector write:
    minMag() of U = 1 at location (0.04 0.00560560819348 0.1) in cell 0

volFieldValue maxdomain_scalar write:
    max() of p = 0 at location (0.04 0.00560560819348 0.1) in cell 0
    max() of k = 0.00015 at location (0.04 0.00560560819348 0.1) in cell 0
    max() of omega = 7.5 at location (0.04 0.00560560819348 0.1) in cell 0
    max() of nut = 2e-05 at location (0.04 0.00560560819348 0.1) in cell 0
--> FOAM Warning :     functionObjects::volFieldValue maxdomain_scalar cannot find required object epsilon
--> FOAM Warning :     functionObjects::volFieldValue maxdomain_scalar cannot find required object nuTilda

volFieldValue maxdomain_vector write:
    maxMag() of U = 1 at location (0.04 0.00560560819348 0.1) in cell 0

Time = 1s

DILUPBiCGStab:  Solving for Ux, Initial residual = 1, Final residual = 3.95045009698e-09, No Iterations 7
DILUPBiCGStab:  Solving for Uy, Initial residual = 0.937748593738, Final residual = 8.98307944289e-09, No Iterations 7
DILUPBiCGStab:  Solving for Uz, Initial residual = 0.877316929423, Final residual = 6.66190029593e-09, No Iterations 8
DICPCG:  Solving for p, Initial residual = 1, Final residual = 0.000841073505219, No Iterations 102
DICPCG:  Solving for p, Initial residual = 4.16026674542e-06, Final residual = 1.04862039838e-08, No Iterations 3
time step continuity errors : sum local = 1.05813796799e-08, global = -9.69375824424e-11, cumulative = -9.69375824424e-11
DILUPBiCGStab:  Solving for omega, Initial residual = 0.0194512269777, Final residual = 3.50885734067e-09, No Iterations 5
DILUPBiCGStab:  Solving for k, Initial residual = 1, Final residual = 3.13023262837e-09, No Iterations 5
ExecutionTime = 0.109545 s  ClockTime = 0 s

--> FOAM Warning :     functionObjects::volFieldValue minmaxdomain_scalar cannot find required object epsilon
--> FOAM Warning :     functionObjects::volFieldValue minmaxdomain_scalar cannot find required object nuTilda


volFieldValue mindomain_scalar write:
    min() of p = 0.00751706136213 at location (7.96 0.0199789247164 0.1) in cell 2972
    min() of k = 3.08265803641e-05 at location (7.96 0.0901642532855 0.1) in cell 2991
    min() of omega = 6.41264397739 at location (7.96 0.0267991468552 0.1) in cell 2973
    min() of nut = 5.25036264634e-09 at location (0.44 0.096715534344 0.1) in cell 176
--> FOAM Warning :     functionObjects::volFieldValue mindomain_scalar cannot find required object epsilon
--> FOAM Warning :     functionObjects::volFieldValue mindomain_scalar cannot find required object nuTilda

volFieldValue mindomain_vector write:
    minMag() of U = 0.266923250632 at location (7.96 0.0995649406574 0.1) in cell 2999

volFieldValue maxdomain_scalar write:
    max() of p = 1.51989683725 at location (0.04 0.0995649406574 0.1) in cell 29
    max() of k = 0.000660652105958 at location (0.12 0.0995649406574 0.1) in cell 59
    max() of omega = 68082.6843067 at location (2.36 0.0995649406574 0.1) in cell 899
    max() of nut = 2.12318951258e-05 at location (7.64 0.00560560819348 0.1) in cell 2850
--> FOAM Warning :     functionObjects::volFieldValue maxdomain_scalar cannot find required object epsilon
--> FOAM Warning :     functionObjects::volFieldValue maxdomain_scalar cannot find required object nuTilda

volFieldValue maxdomain_vector write:
    maxMag() of U = 1.07092080483 at location (0.12 0.0331297396555 0.1) in cell 34

Time = 2s

DILUPBiCGStab:  Solving for Ux, Initial residual = 0.124317393818, Final residual = 5.20129137535e-09, No Iterations 7
DILUPBiCGStab:  Solving for Uy, Initial residual = 0.219119274707, Final residual = 5.65420680317e-09, No Iterations 9
DILUPBiCGStab:  Solving for Uz, Initial residual = 0.672560478459, Final residual = 7.65514533774e-09, No Iterations 8
DICPCG:  Solving for p, Initial residual = 0.0128268396126, Final residual = 8.6380978561e-05, No Iterations 101
DICPCG:  Solving for p, Initial residual = 9.13096013107e-05, Final residual = 5.97558347659e-07, No Iterations 3
time step continuity errors : sum local = 5.29119856555e-07, global = -1.80392085063e-08, cumulative = -1.81361460887e-08
DILUPBiCGStab:  Solving for omega, Initial residual = 0.267093017449, Final residual = 3.29366334923e-09, No Iterations 3
DILUPBiCGStab:  Solving for k, Initial residual = 0.958145316715, Final residual = 2.98611289644e-09, No Iterations 5
ExecutionTime = 0.123863 s  ClockTime = 0 s

--> FOAM Warning :     functionObjects::volFieldValue minmaxdomain_scalar cannot find required object epsilon
--> FOAM Warning :     functionObjects::volFieldValue minmaxdomain_scalar cannot find required object nuTilda


volFieldValue mindomain_scalar write:
    min() of p = 0.00701531117652 at location (7.96 0.0127006636087 0.1) in cell 2971
    min() of k = 1.12937072329e-05 at location (7.96 0.0916903082292 0.1) in cell 2992
    min() of omega = 3.83302191725 at location (0.04 0.0753053108735 0.1) in cell 14
    min() of nut = 7.71134013187e-10 at location (0.04 0.0995649406574 0.1) in cell 29
--> FOAM Warning :     functionObjects::volFieldValue mindomain_scalar cannot find required object epsilon
--> FOAM Warning :     functionObjects::volFieldValue mindomain_scalar cannot find required object nuTilda

volFieldValue mindomain_vector write:
    minMag() of U = 0.120602747429 at location (7.96 0.0995649406574 0.1) in cell 2999

volFieldValue maxdomain_scalar write:
    max() of p = 1.54101768593 at location (0.04 0.0995649406574 0.1) in cell 29
    max() of k = 0.000164641873348 at location (0.28 0.00560560819348 0.1) in cell 90
    max() of omega = 68082.6843067 at location (2.36 0.0995649406574 0.1) in cell 899
    max() of nut = 3.71648180355e-05 at location (0.04 0.0753053108735 0.1) in cell 14
--> FOAM Warning :     functionObjects::volFieldValue maxdomain_scalar cannot find required object epsilon
--> FOAM Warning :     functionObjects::volFieldValue maxdomain_scalar cannot find required object nuTilda

volFieldValue maxdomain_vector write:
    maxMag() of U = 1.12766252414 at location (7.96 0.0331297396555 0.1) in cell 2974

Time = 3s

DILUPBiCGStab:  Solving for Ux, Initial residual = 0.0499816608478, Final residual = 5.08432219797e-09, No Iterations 7
DILUPBiCGStab:  Solving for Uy, Initial residual = 0.150878321086, Final residual = 9.95740982874e-09, No Iterations 9
DILUPBiCGStab:  Solving for Uz, Initial residual = 0.600499098363, Final residual = 3.95491361918e-09, No Iterations 8
DICPCG:  Solving for p, Initial residual = 0.0152706336474, Final residual = 9.18492056357e-05, No Iterations 101
DICPCG:  Solving for p, Initial residual = 0.000114505873469, Final residual = 7.15647939257e-07, No Iterations 3
time step continuity errors : sum local = 5.13305326538e-07, global = -2.57331137923e-08, cumulative = -4.3869259881e-08
DILUPBiCGStab:  Solving for omega, Initial residual = 0.0101466428805, Final residual = 2.47983377359e-09, No Iterations 3
DILUPBiCGStab:  Solving for k, Initial residual = 0.70180707556, Final residual = 4.03010444774e-09, No Iterations 6
ExecutionTime = 0.137397 s  ClockTime = 0 s

--> FOAM Warning :     functionObjects::volFieldValue minmaxdomain_scalar cannot find required object epsilon
--> FOAM Warning :     functionObjects::volFieldValue minmaxdomain_scalar cannot find required object nuTilda


volFieldValue mindomain_scalar write:
    min() of p = 0.00559171812746 at location (7.96 0.0127006636087 0.1) in cell 2971
    min() of k = 5.57113016546e-06 at location (7.96 0.0977416548527 0.1) in cell 2997
    min() of omega = 5.69804439274 at location (1.4 0.0267991468552 0.1) in cell 513
    min() of nut = 8.41706098974e-11 at location (0.04 0.0995649406574 0.1) in cell 29
--> FOAM Warning :     functionObjects::volFieldValue mindomain_scalar cannot find required object epsilon
--> FOAM Warning :     functionObjects::volFieldValue mindomain_scalar cannot find required object nuTilda

volFieldValue mindomain_vector write:
    minMag() of U = 0.0799580349608 at location (7.96 0.0995649406574 0.1) in cell 2999

volFieldValue maxdomain_scalar write:
    max() of p = 1.34524260486 at location (0.04 0.0995649406574 0.1) in cell 29
    max() of k = 0.000162407242581 at location (0.44 0.00560560819348 0.1) in cell 150
    max() of omega = 68082.6843067 at location (2.36 0.0995649406574 0.1) in cell 899
    max() of nut = 2.3885326789e-05 at location (7.32 0.00560560819348 0.1) in cell 2730
--> FOAM Warning :     functionObjects::volFieldValue maxdomain_scalar cannot find required object epsilon
--> FOAM Warning :     functionObjects::volFieldValue maxdomain_scalar cannot find required object nuTilda

volFieldValue maxdomain_vector write:
    maxMag() of U = 1.16975941891 at location (7.96 0.0331297396555 0.1) in cell 2974

Time = 4s

DILUPBiCGStab:  Solving for Ux, Initial residual = 0.0303039939061, Final residual = 9.06381840072e-09, No Iterations 6
DILUPBiCGStab:  Solving for Uy, Initial residual = 0.122383225662, Final residual = 8.42761564527e-09, No Iterations 9
DILUPBiCGStab:  Solving for Uz, Initial residual = 0.667075786239, Final residual = 4.52182134294e-09, No Iterations 8
DICPCG:  Solving for p, Initial residual = 0.0187285795436, Final residual = 0.000104799260698, No Iterations 101
DICPCG:  Solving for p, Initial residual = 0.000112197992727, Final residual = 6.54515442372e-07, No Iterations 3
time step continuity errors : sum local = 4.52035697467e-07, global = -2.09146246367e-08, cumulative = -6.47838845178e-08
DILUPBiCGStab:  Solving for omega, Initial residual = 0.00827532519244, Final residual = 3.03297263724e-09, No Iterations 3
DILUPBiCGStab:  Solving for k, Initial residual = 0.0594621774897, Final residual = 7.77430989911e-09, No Iterations 5
ExecutionTime = 0.150491 s  ClockTime = 0 s

--> FOAM Warning :     functionObjects::volFieldValue minmaxdomain_scalar cannot find required object epsilon
--> FOAM Warning :     functionObjects::volFieldValue minmaxdomain_scalar cannot find required object nuTilda


volFieldValue mindomain_scalar write:
    min() of p = 0.00513624013738 at location (7.96 0.0127006636087 0.1) in cell 2971
    min() of k = 6.97776683558e-07 at location (7.96 0.0995649406574 0.1) in cell 2999
    min() of omega = 5.52746615891 at location (1.4 0.0267991468552 0.1) in cell 513
    min() of nut = 1.02489596388e-11 at location (7.96 0.0995649406574 0.1) in cell 2999
--> FOAM Warning :     functionObjects::volFieldValue mindomain_scalar cannot find required object epsilon
--> FOAM Warning :     functionObjects::volFieldValue mindomain_scalar cannot find required object nuTilda

volFieldValue mindomain_vector write:
    minMag() of U = 0.062126001851 at location (7.96 0.0995649406574 0.1) in cell 2999

volFieldValue maxdomain_scalar write:
    max() of p = 1.30616372507 at location (0.04 0.0995649406574 0.1) in cell 29
    max() of k = 0.000157260317552 at location (7.72 0.0127006636087 0.1) in cell 2881
    max() of omega = 68082.6843067 at location (2.36 0.0995649406574 0.1) in cell 899
    max() of nut = 2.44310647713e-05 at location (7.48 0.00560560819348 0.1) in cell 2790
--> FOAM Warning :     functionObjects::volFieldValue maxdomain_scalar cannot find required object epsilon
--> FOAM Warning :     functionObjects::volFieldValue maxdomain_scalar cannot find required object nuTilda

volFieldValue maxdomain_vector write:
    maxMag() of U = 1.20634280059 at location (7.96 0.0331297396555 0.1) in cell 2974

Time = 5s

DILUPBiCGStab:  Solving for Ux, Initial residual = 0.0218373297058, Final residual = 7.26669152903e-09, No Iterations 6
DILUPBiCGStab:  Solving for Uy, Initial residual = 0.105408715991, Final residual = 7.68872746572e-09, No Iterations 9
DILUPBiCGStab:  Solving for Uz, Initial residual = 0.628901389379, Final residual = 6.08600079704e-09, No Iterations 8
DICPCG:  Solving for p, Initial residual = 0.0193900372149, Final residual = 0.000182004794095, No Iterations 43
DICPCG:  Solving for p, Initial residual = 0.000179113611636, Final residual = 1.68612895354e-06, No Iterations 99
time step continuity errors : sum local = 1.19970726504e-06, global = 1.79483981916e-09, cumulative = -6.29890446986e-08
DILUPBiCGStab:  Solving for omega, Initial residual = 0.00345851953539, Final residual = 3.22230852523e-09, No Iterations 3
DILUPBiCGStab:  Solving for k, Initial residual = 0.00861466224055, Final residual = 4.88673223264e-09, No Iterations 5
ExecutionTime = 0.1645 s  ClockTime = 0 s

--> FOAM Warning :     functionObjects::volFieldValue minmaxdomain_scalar cannot find required object epsilon
--> FOAM Warning :     functionObjects::volFieldValue minmaxdomain_scalar cannot find required object nuTilda


volFieldValue mindomain_scalar write:
    min() of p = 0.00510094625958 at location (7.96 0.00560560819348 0.1) in cell 2970
    min() of k = 7.31553426715e-08 at location (7.96 0.0995649406574 0.1) in cell 2999
    min() of omega = 5.39705623063 at location (1.32 0.0267991468552 0.1) in cell 483
    min() of nut = 1.07450732028e-12 at location (7.96 0.0995649406574 0.1) in cell 2999
--> FOAM Warning :     functionObjects::volFieldValue mindomain_scalar cannot find required object epsilon
--> FOAM Warning :     functionObjects::volFieldValue mindomain_scalar cannot find required object nuTilda

volFieldValue mindomain_vector write:
    minMag() of U = 0.0519523475137 at location (7.96 0.0995649406574 0.1) in cell 2999

volFieldValue maxdomain_scalar write:
    max() of p = 1.34544613538 at location (0.04 0.0995649406574 0.1) in cell 29
    max() of k = 0.000153622683996 at location (7.8 0.0127006636087 0.1) in cell 2911
    max() of omega = 68082.6843067 at location (2.36 0.0995649406574 0.1) in cell 899
    max() of nut = 2.4535979623e-05 at location (7.64 0.00560560819348 0.1) in cell 2850
--> FOAM Warning :     functionObjects::volFieldValue maxdomain_scalar cannot find required object epsilon
--> FOAM Warning :     functionObjects::volFieldValue maxdomain_scalar cannot find required object nuTilda

volFieldValue maxdomain_vector write:
    maxMag() of U = 1.24168848833 at location (7.96 0.0267991468552 0.1) in cell 2973

Time = 6s

DILUPBiCGStab:  Solving for Ux, Initial residual = 0.0170075939286, Final residual = 6.59067239143e-09, No Iterations 6
DILUPBiCGStab:  Solving for Uy, Initial residual = 0.0985385221945, Final residual = 5.05675116436e-09, No Iterations 9
DILUPBiCGStab:  Solving for Uz, Initial residual = 0.594165024604, Final residual = 9.66817563433e-09, No Iterations 8
DICPCG:  Solving for p, Initial residual = 0.0184793538616, Final residual = 0.000160366494739, No Iterations 79
DICPCG:  Solving for p, Initial residual = 0.0001579817846, Final residual = 1.31567679088e-06, No Iterations 94
time step continuity errors : sum local = 9.50678750813e-07, global = 8.5491662973e-08, cumulative = 2.25026182744e-08
DILUPBiCGStab:  Solving for omega, Initial residual = 0.00250175393966, Final residual = 3.68013898644e-09, No Iterations 3
DILUPBiCGStab:  Solving for k, Initial residual = 0.00180825964745, Final residual = 7.87210428032e-09, No Iterations 5
ExecutionTime = 0.17948 s  ClockTime = 0 s

--> FOAM Warning :     functionObjects::volFieldValue minmaxdomain_scalar cannot find required object epsilon
--> FOAM Warning :     functionObjects::volFieldValue minmaxdomain_scalar cannot find required object nuTilda


volFieldValue mindomain_scalar write:
    min() of p = 0.00510942231031 at location (7.96 0.00560560819348 0.1) in cell 2970
    min() of k = 7.94504418825e-09 at location (7.96 0.0995649406574 0.1) in cell 2999
    min() of omega = 5.3012236714 at location (1.4 0.0267991468552 0.1) in cell 513
    min() of nut = 1.16696987922e-13 at location (7.96 0.0995649406574 0.1) in cell 2999
--> FOAM Warning :     functionObjects::volFieldValue mindomain_scalar cannot find required object epsilon
--> FOAM Warning :     functionObjects::volFieldValue mindomain_scalar cannot find required object nuTilda

volFieldValue mindomain_vector write:
    minMag() of U = 0.0452584268166 at location (7.96 0.0995649406574 0.1) in cell 2999

volFieldValue maxdomain_scalar write:
    max() of p = 1.39378553818 at location (0.04 0.0995649406574 0.1) in cell 29
    max() of k = 0.000148929486146 at location (7.8 0.0127006636087 0.1) in cell 2911
    max() of omega = 68082.6843067 at location (2.36 0.0995649406574 0.1) in cell 899
    max() of nut = 2.42369758199e-05 at location (7.8 0.00560560819348 0.1) in cell 2910
--> FOAM Warning :     functionObjects::volFieldValue maxdomain_scalar cannot find required object epsilon
--> FOAM Warning :     functionObjects::volFieldValue maxdomain_scalar cannot find required object nuTilda

volFieldValue maxdomain_vector write:
    maxMag() of U = 1.27598145971 at location (7.96 0.0267991468552 0.1) in cell 2973

Time = 7s

DILUPBiCGStab:  Solving for Ux, Initial residual = 0.0137660005868, Final residual = 5.35397343915e-09, No Iterations 6
DILUPBiCGStab:  Solving for Uy, Initial residual = 0.088349523756, Final residual = 3.78811237465e-09, No Iterations 9
DILUPBiCGStab:  Solving for Uz, Initial residual = 0.531591595374, Final residual = 3.42393387396e-09, No Iterations 8
DICPCG:  Solving for p, Initial residual = 0.0174000798916, Final residual = 0.000162797282939, No Iterations 79
DICPCG:  Solving for p, Initial residual = 0.000160699540762, Final residual = 3.54142664877e-07, No Iterations 99
time step continuity errors : sum local = 2.61170582217e-07, global = -2.97248908318e-09, cumulative = 1.95301291912e-08
DILUPBiCGStab:  Solving for omega, Initial residual = 0.00129384447099, Final residual = 2.84961539553e-09, No Iterations 3
DILUPBiCGStab:  Solving for k, Initial residual = 0.00124271568953, Final residual = 5.31222520814e-09, No Iterations 5
ExecutionTime = 0.193884 s  ClockTime = 0 s

--> FOAM Warning :     functionObjects::volFieldValue minmaxdomain_scalar cannot find required object epsilon
--> FOAM Warning :     functionObjects::volFieldValue minmaxdomain_scalar cannot find required object nuTilda


volFieldValue mindomain_scalar write:
    min() of p = 0.00510743671991 at location (7.96 0.00560560819348 0.1) in cell 2970
    min() of k = 9.68446356787e-10 at location (7.96 0.0995649406574 0.1) in cell 2999
    min() of omega = 5.24397912021 at location (1.48 0.0267991468552 0.1) in cell 543
    min() of nut = 1.42245618934e-14 at location (7.96 0.0995649406574 0.1) in cell 2999
--> FOAM Warning :     functionObjects::volFieldValue mindomain_scalar cannot find required object epsilon
--> FOAM Warning :     functionObjects::volFieldValue mindomain_scalar cannot find required object nuTilda

volFieldValue mindomain_vector write:
    minMag() of U = 0.0404597614732 at location (7.96 0.0995649406574 0.1) in cell 2999

volFieldValue maxdomain_scalar write:
    max() of p = 1.43729432434 at location (0.04 0.0995649406574 0.1) in cell 29
    max() of k = 0.000147392980696 at location (0.12 0.0127006636087 0.1) in cell 31
    max() of omega = 68082.6843067 at location (2.36 0.0995649406574 0.1) in cell 899
    max() of nut = 2.35362245284e-05 at location (7.8 0.00560560819348 0.1) in cell 2910
--> FOAM Warning :     functionObjects::volFieldValue maxdomain_scalar cannot find required object epsilon
--> FOAM Warning :     functionObjects::volFieldValue maxdomain_scalar cannot find required object nuTilda

volFieldValue maxdomain_vector write:
    maxMag() of U = 1.30904269208 at location (7.96 0.0267991468552 0.1) in cell 2973

Time = 8s

DILUPBiCGStab:  Solving for Ux, Initial residual = 0.011427704756, Final residual = 4.82592963535e-09, No Iterations 6
DILUPBiCGStab:  Solving for Uy, Initial residual = 0.0770970775783, Final residual = 4.36750126102e-09, No Iterations 9
DILUPBiCGStab:  Solving for Uz, Initial residual = 0.524721153749, Final residual = 9.50298461073e-09, No Iterations 7
DICPCG:  Solving for p, Initial residual = 0.0165448850335, Final residual = 0.000163868196777, No Iterations 79
DICPCG:  Solving for p, Initial residual = 0.00016193728937, Final residual = 9.24184967301e-07, No Iterations 99
time step continuity errors : sum local = 6.93804856393e-07, global = 1.50405867713e-09, cumulative = 2.10341878683e-08
DILUPBiCGStab:  Solving for omega, Initial residual = 0.000824699856569, Final residual = 2.68021817328e-09, No Iterations 3
DILUPBiCGStab:  Solving for k, Initial residual = 0.00135447245697, Final residual = 3.76638327936e-09, No Iterations 5
ExecutionTime = 0.207863 s  ClockTime = 0 s

--> FOAM Warning :     functionObjects::volFieldValue minmaxdomain_scalar cannot find required object epsilon
--> FOAM Warning :     functionObjects::volFieldValue minmaxdomain_scalar cannot find required object nuTilda


volFieldValue mindomain_scalar write:
    min() of p = 0.0051082356624 at location (7.96 0.00560560819348 0.1) in cell 2970
    min() of k = 1.91699783191e-10 at location (7.96 0.0995649406574 0.1) in cell 2999
    min() of omega = 5.22170061452 at location (1.48 0.0267991468552 0.1) in cell 543
    min() of nut = 2.81569073169e-15 at location (7.96 0.0995649406574 0.1) in cell 2999
--> FOAM Warning :     functionObjects::volFieldValue mindomain_scalar cannot find required object epsilon
--> FOAM Warning :     functionObjects::volFieldValue mindomain_scalar cannot find required object nuTilda

volFieldValue mindomain_vector write:
    minMag() of U = 0.0368318974646 at location (7.96 0.0995649406574 0.1) in cell 2999

volFieldValue maxdomain_scalar write:
    max() of p = 1.47712690669 at location (0.04 0.0995649406574 0.1) in cell 29
    max() of k = 0.000146642211571 at location (0.12 0.0127006636087 0.1) in cell 31
    max() of omega = 68082.6843067 at location (2.36 0.0995649406574 0.1) in cell 899
    max() of nut = 2.24481311399e-05 at location (7.8 0.00560560819348 0.1) in cell 2910
--> FOAM Warning :     functionObjects::volFieldValue maxdomain_scalar cannot find required object epsilon
--> FOAM Warning :     functionObjects::volFieldValue maxdomain_scalar cannot find required object nuTilda

volFieldValue maxdomain_vector write:
    maxMag() of U = 1.34087626186 at location (7.96 0.0267991468552 0.1) in cell 2973

Time = 9s

DILUPBiCGStab:  Solving for Ux, Initial residual = 0.00964140119467, Final residual = 4.34116796639e-09, No Iterations 6
DILUPBiCGStab:  Solving for Uy, Initial residual = 0.0641787753883, Final residual = 6.63590850745e-09, No Iterations 8
DILUPBiCGStab:  Solving for Uz, Initial residual = 0.500298420084, Final residual = 5.24218633937e-09, No Iterations 8
DICPCG:  Solving for p, Initial residual = 0.0159106015817, Final residual = 0.000150326911312, No Iterations 79
DICPCG:  Solving for p, Initial residual = 0.000148660143719, Final residual = 1.04098864908e-06, No Iterations 99
time step continuity errors : sum local = 7.95155639058e-07, global = 4.65643956843e-09, cumulative = 2.56906274368e-08
DILUPBiCGStab:  Solving for omega, Initial residual = 0.000458178401456, Final residual = 1.53094490767e-09, No Iterations 3
DILUPBiCGStab:  Solving for k, Initial residual = 0.00164028610273, Final residual = 5.33842688767e-09, No Iterations 5
ExecutionTime = 0.222271 s  ClockTime = 0 s

--> FOAM Warning :     functionObjects::volFieldValue minmaxdomain_scalar cannot find required object epsilon
--> FOAM Warning :     functionObjects::volFieldValue minmaxdomain_scalar cannot find required object nuTilda


volFieldValue mindomain_scalar write:
    min() of p = 0.0051135818978 at location (7.96 0.00560560819348 0.1) in cell 2970
    min() of k = 9.00262442729e-11 at location (2.92 0.0995649406574 0.1) in cell 1109
    min() of omega = 5.22617979353 at location (1.48 0.0267991468552 0.1) in cell 543
    min() of nut = 1.32230750285e-15 at location (2.92 0.0995649406574 0.1) in cell 1109
--> FOAM Warning :     functionObjects::volFieldValue mindomain_scalar cannot find required object epsilon
--> FOAM Warning :     functionObjects::volFieldValue mindomain_scalar cannot find required object nuTilda

volFieldValue mindomain_vector write:
    minMag() of U = 0.0339913013662 at location (7.96 0.0995649406574 0.1) in cell 2999

volFieldValue maxdomain_scalar write:
    max() of p = 1.51433368388 at location (0.04 0.0995649406574 0.1) in cell 29
    max() of k = 0.00014641935279 at location (0.04 0.038990531642 0.1) in cell 5
    max() of omega = 68082.6843067 at location (2.36 0.0995649406574 0.1) in cell 899
    max() of nut = 2.10169728251e-05 at location (7.96 0.00560560819348 0.1) in cell 2970
--> FOAM Warning :     functionObjects::volFieldValue maxdomain_scalar cannot find required object epsilon
--> FOAM Warning :     functionObjects::volFieldValue maxdomain_scalar cannot find required object nuTilda

volFieldValue maxdomain_vector write:
    maxMag() of U = 1.37148903205 at location (7.96 0.0267991468552 0.1) in cell 2973

Time = 10s

DILUPBiCGStab:  Solving for Ux, Initial residual = 0.00824551954805, Final residual = 4.15324839744e-09, No Iterations 6
DILUPBiCGStab:  Solving for Uy, Initial residual = 0.0536795727258, Final residual = 3.95781511429e-09, No Iterations 8
DILUPBiCGStab:  Solving for Uz, Initial residual = 0.51750263878, Final residual = 5.48908999813e-09, No Iterations 8
DICPCG:  Solving for p, Initial residual = 0.0153047288169, Final residual = 0.000148344216523, No Iterations 79
DICPCG:  Solving for p, Initial residual = 0.000146791680657, Final residual = 8.01019909629e-07, No Iterations 99
time step continuity errors : sum local = 6.22616393715e-07, global = 3.23378395946e-09, cumulative = 2.89244113962e-08
DILUPBiCGStab:  Solving for omega, Initial residual = 0.000278548006795, Final residual = 1.27926570104e-09, No Iterations 3
DILUPBiCGStab:  Solving for k, Initial residual = 0.00193591841638, Final residual = 4.07348400113e-09, No Iterations 5
ExecutionTime = 0.237768 s  ClockTime = 0 s

--> FOAM Warning :     functionObjects::volFieldValue minmaxdomain_scalar cannot find required object epsilon
--> FOAM Warning :     functionObjects::volFieldValue minmaxdomain_scalar cannot find required object nuTilda


volFieldValue mindomain_scalar write:
    min() of p = 0.00511965457591 at location (7.96 0.00560560819348 0.1) in cell 2970
    min() of k = 7.64114248305e-11 at location (2.76 0.0995649406574 0.1) in cell 1049
    min() of omega = 5.23946368279 at location (1.72 0.0199789247164 0.1) in cell 632
    min() of nut = 1.12233272834e-15 at location (2.76 0.0995649406574 0.1) in cell 1049
--> FOAM Warning :     functionObjects::volFieldValue mindomain_scalar cannot find required object epsilon
--> FOAM Warning :     functionObjects::volFieldValue mindomain_scalar cannot find required object nuTilda

volFieldValue mindomain_vector write:
    minMag() of U = 0.0317095761227 at location (7.96 0.0995649406574 0.1) in cell 2999

volFieldValue maxdomain_scalar write:
    max() of p = 1.54865750311 at location (0.04 0.0995649406574 0.1) in cell 29
    max() of k = 0.000146390729537 at location (0.04 0.038990531642 0.1) in cell 5
    max() of omega = 68082.6843067 at location (2.36 0.0995649406574 0.1) in cell 899
    max() of nut = 2.01006939221e-05 at location (1.88 0.00560560819348 0.1) in cell 690
--> FOAM Warning :     functionObjects::volFieldValue maxdomain_scalar cannot find required object epsilon
--> FOAM Warning :     functionObjects::volFieldValue maxdomain_scalar cannot find required object nuTilda

volFieldValue maxdomain_vector write:
    maxMag() of U = 1.40085845332 at location (7.96 0.0267991468552 0.1) in cell 2973

Time = 11s

DILUPBiCGStab:  Solving for Ux, Initial residual = 0.00710066729324, Final residual = 6.15418051638e-09, No Iterations 6
DILUPBiCGStab:  Solving for Uy, Initial residual = 0.0465667736963, Final residual = 7.51809387697e-09, No Iterations 8
DILUPBiCGStab:  Solving for Uz, Initial residual = 0.516006516202, Final residual = 3.41989020431e-09, No Iterations 8
DICPCG:  Solving for p, Initial residual = 0.0145911189079, Final residual = 0.000138762545976, No Iterations 79
DICPCG:  Solving for p, Initial residual = 0.000137362377781, Final residual = 5.75699874007e-07, No Iterations 99
time step continuity errors : sum local = 4.55421486438e-07, global = 7.7347988819e-09, cumulative = 3.66592102781e-08
DILUPBiCGStab:  Solving for omega, Initial residual = 0.000158604780993, Final residual = 9.38554981844e-10, No Iterations 3
DILUPBiCGStab:  Solving for k, Initial residual = 0.00224789759894, Final residual = 4.52414537679e-09, No Iterations 5
ExecutionTime = 0.252919 s  ClockTime = 0 s

--> FOAM Warning :     functionObjects::volFieldValue minmaxdomain_scalar cannot find required object epsilon
--> FOAM Warning :     functionObjects::volFieldValue minmaxdomain_scalar cannot find required object nuTilda


volFieldValue mindomain_scalar write:
    min() of p = 0.0051241607242 at location (7.96 0.00560560819348 0.1) in cell 2970
    min() of k = 7.48024939035e-11 at location (2.68 0.0995649406574 0.1) in cell 1019
    min() of omega = 5.20511208575 at location (1.72 0.0199789247164 0.1) in cell 632
    min() of nut = 1.09870071466e-15 at location (2.68 0.0995649406574 0.1) in cell 1019
--> FOAM Warning :     functionObjects::volFieldValue mindomain_scalar cannot find required object epsilon
--> FOAM Warning :     functionObjects::volFieldValue mindomain_scalar cannot find required object nuTilda

volFieldValue mindomain_vector write:
    minMag() of U = 0.0298402030227 at location (7.96 0.0995649406574 0.1) in cell 2999

volFieldValue maxdomain_scalar write:
    max() of p = 1.57996055581 at location (0.04 0.0995649406574 0.1) in cell 29
    max() of k = 0.000146327845931 at location (0.04 0.038990531642 0.1) in cell 5
    max() of omega = 68082.6843067 at location (2.36 0.0995649406574 0.1) in cell 899
    max() of nut = 1.99046222269e-05 at location (0.12 0.00560560819348 0.1) in cell 30
--> FOAM Warning :     functionObjects::volFieldValue maxdomain_scalar cannot find required object epsilon
--> FOAM Warning :     functionObjects::volFieldValue maxdomain_scalar cannot find required object nuTilda

volFieldValue maxdomain_vector write:
    maxMag() of U = 1.42894751759 at location (7.96 0.0267991468552 0.1) in cell 2973

Time = 12s

DILUPBiCGStab:  Solving for Ux, Initial residual = 0.00607560974184, Final residual = 8.30299519934e-09, No Iterations 6
DILUPBiCGStab:  Solving for Uy, Initial residual = 0.0447775116194, Final residual = 9.73740937973e-09, No Iterations 8
DILUPBiCGStab:  Solving for Uz, Initial residual = 0.516609195563, Final residual = 8.34344236628e-09, No Iterations 7
DICPCG:  Solving for p, Initial residual = 0.0118696052882, Final residual = 0.000107060877834, No Iterations 90
DICPCG:  Solving for p, Initial residual = 0.00010623791736, Final residual = 7.6955545001e-07, No Iterations 98
time step continuity errors : sum local = 6.16797820729e-07, global = 1.67426017314e-08, cumulative = 5.34018120096e-08
DILUPBiCGStab:  Solving for omega, Initial residual = 9.54781665355e-05, Final residual = 7.40006914376e-10, No Iterations 3
DILUPBiCGStab:  Solving for k, Initial residual = 0.00253744604448, Final residual = 4.32059118828e-09, No Iterations 5
ExecutionTime = 0.267285 s  ClockTime = 0 s

--> FOAM Warning :     functionObjects::volFieldValue minmaxdomain_scalar cannot find required object epsilon
--> FOAM Warning :     functionObjects::volFieldValue minmaxdomain_scalar cannot find required object nuTilda


volFieldValue mindomain_scalar write:
    min() of p = 0.00512664325103 at location (7.96 0.00560560819348 0.1) in cell 2970
    min() of k = 7.9349332091e-11 at location (2.6 0.0995649406574 0.1) in cell 989
    min() of omega = 5.17409318952 at location (1.72 0.0199789247164 0.1) in cell 632
    min() of nut = 1.16548477633e-15 at location (2.6 0.0995649406574 0.1) in cell 989
--> FOAM Warning :     functionObjects::volFieldValue mindomain_scalar cannot find required object epsilon
--> FOAM Warning :     functionObjects::volFieldValue mindomain_scalar cannot find required object nuTilda

volFieldValue mindomain_vector write:
    minMag() of U = 0.0282845237994 at location (7.96 0.0995649406574 0.1) in cell 2999

volFieldValue maxdomain_scalar write:
    max() of p = 1.61531889568 at location (0.04 0.0995649406574 0.1) in cell 29
    max() of k = 0.000146408761207 at location (0.04 0.038990531642 0.1) in cell 5
    max() of omega = 68082.6843067 at location (2.36 0.0995649406574 0.1) in cell 899
    max() of nut = 1.9905671465e-05 at location (0.12 0.0127006636087 0.1) in cell 31
--> FOAM Warning :     functionObjects::volFieldValue maxdomain_scalar cannot find required object epsilon
--> FOAM Warning :     functionObjects::volFieldValue maxdomain_scalar cannot find required object nuTilda

volFieldValue maxdomain_vector write:
    maxMag() of U = 1.45571803112 at location (7.96 0.0267991468552 0.1) in cell 2973

Time = 13s

DILUPBiCGStab:  Solving for Ux, Initial residual = 0.00528827813759, Final residual = 7.53105523452e-09, No Iterations 6
DILUPBiCGStab:  Solving for Uy, Initial residual = 0.038666105421, Final residual = 5.64900631857e-10, No Iterations 9
DILUPBiCGStab:  Solving for Uz, Initial residual = 0.512785399299, Final residual = 3.83710180924e-09, No Iterations 8
DICPCG:  Solving for p, Initial residual = 0.0108353117195, Final residual = 0.000107028562593, No Iterations 85
DICPCG:  Solving for p, Initial residual = 0.000106357566542, Final residual = 1.02774560756e-06, No Iterations 99
time step continuity errors : sum local = 8.32992394218e-07, global = 4.91529779253e-09, cumulative = 5.83171098021e-08
DILUPBiCGStab:  Solving for omega, Initial residual = 5.46018317223e-05, Final residual = 5.81292397182e-10, No Iterations 3
DILUPBiCGStab:  Solving for k, Initial residual = 0.00281008965466, Final residual = 3.63586996219e-09, No Iterations 5
ExecutionTime = 0.282608 s  ClockTime = 0 s

--> FOAM Warning :     functionObjects::volFieldValue minmaxdomain_scalar cannot find required object epsilon
--> FOAM Warning :     functionObjects::volFieldValue minmaxdomain_scalar cannot find required object nuTilda


volFieldValue mindomain_scalar write:
    min() of p = 0.00512722909679 at location (7.96 0.00560560819348 0.1) in cell 2970
    min() of k = 8.5750017222e-11 at location (2.52 0.0995649406574 0.1) in cell 959
    min() of omega = 5.14732975654 at location (1.72 0.0199789247164 0.1) in cell 632
    min() of nut = 1.25949818365e-15 at location (2.52 0.0995649406574 0.1) in cell 959
--> FOAM Warning :     functionObjects::volFieldValue mindomain_scalar cannot find required object epsilon
--> FOAM Warning :     functionObjects::volFieldValue mindomain_scalar cannot find required object nuTilda

volFieldValue mindomain_vector write:
    minMag() of U = 0.0269735070058 at location (7.96 0.0995649406574 0.1) in cell 2999

volFieldValue maxdomain_scalar write:
    max() of p = 1.64146029711 at location (0.04 0.0995649406574 0.1) in cell 29
    max() of k = 0.000146433864939 at location (0.04 0.038990531642 0.1) in cell 5
    max() of omega = 68082.6843067 at location (2.36 0.0995649406574 0.1) in cell 899
    max() of nut = 1.98999553392e-05 at location (0.04 0.0331297396555 0.1) in cell 4
--> FOAM Warning :     functionObjects::volFieldValue maxdomain_scalar cannot find required object epsilon
--> FOAM Warning :     functionObjects::volFieldValue maxdomain_scalar cannot find required object nuTilda

volFieldValue maxdomain_vector write:
    maxMag() of U = 1.48270085893 at location (7.96 0.0199789247164 0.1) in cell 2972

Time = 14s

DILUPBiCGStab:  Solving for Ux, Initial residual = 0.00460235210078, Final residual = 6.62577242162e-09, No Iterations 6
DILUPBiCGStab:  Solving for Uy, Initial residual = 0.0379589010364, Final residual = 3.79585868622e-09, No Iterations 8
DILUPBiCGStab:  Solving for Uz, Initial residual = 0.496288424266, Final residual = 3.65048674e-09, No Iterations 8
DICPCG:  Solving for p, Initial residual = 0.0100459816127, Final residual = 9.47818192281e-05, No Iterations 92
DICPCG:  Solving for p, Initial residual = 9.42384187614e-05, Final residual = 4.73758785919e-07, No Iterations 99
time step continuity errors : sum local = 3.87970373613e-07, global = -4.10686342357e-10, cumulative = 5.79064234597e-08
DILUPBiCGStab:  Solving for omega, Initial residual = 3.32781088097e-05, Final residual = 4.16941153978e-10, No Iterations 3
DILUPBiCGStab:  Solving for k, Initial residual = 0.00307934134133, Final residual = 9.12599594834e-09, No Iterations 4
ExecutionTime = 0.297439 s  ClockTime = 0 s

--> FOAM Warning :     functionObjects::volFieldValue minmaxdomain_scalar cannot find required object epsilon
--> FOAM Warning :     functionObjects::volFieldValue minmaxdomain_scalar cannot find required object nuTilda


volFieldValue mindomain_scalar write:
    min() of p = 0.00512624422381 at location (7.96 0.0995649406574 0.1) in cell 2999
    min() of k = 9.49780164456e-11 at location (2.52 0.0995649406574 0.1) in cell 959
    min() of omega = 5.12624017056 at location (1.72 0.0199789247164 0.1) in cell 632
    min() of nut = 1.39503924401e-15 at location (2.52 0.0995649406574 0.1) in cell 959
--> FOAM Warning :     functionObjects::volFieldValue mindomain_scalar cannot find required object epsilon
--> FOAM Warning :     functionObjects::volFieldValue mindomain_scalar cannot find required object nuTilda

volFieldValue mindomain_vector write:
    minMag() of U = 0.0258572205881 at location (7.96 0.0995649406574 0.1) in cell 2999

volFieldValue maxdomain_scalar write:
    max() of p = 1.66508405238 at location (0.04 0.0995649406574 0.1) in cell 29
    max() of k = 0.000146393851513 at location (0.04 0.038990531642 0.1) in cell 5
    max() of omega = 68082.6843067 at location (2.36 0.0995649406574 0.1) in cell 899
    max() of nut = 1.98975857588e-05 at location (0.04 0.0331297396555 0.1) in cell 4
--> FOAM Warning :     functionObjects::volFieldValue maxdomain_scalar cannot find required object epsilon
--> FOAM Warning :     functionObjects::volFieldValue maxdomain_scalar cannot find required object nuTilda

volFieldValue maxdomain_vector write:
    maxMag() of U = 1.50880435026 at location (7.96 0.0199789247164 0.1) in cell 2972

Time = 15s

DILUPBiCGStab:  Solving for Ux, Initial residual = 0.00402036036597, Final residual = 4.62427054216e-09, No Iterations 6
DILUPBiCGStab:  Solving for Uy, Initial residual = 0.0346187333142, Final residual = 9.09120667266e-09, No Iterations 7
DILUPBiCGStab:  Solving for Uz, Initial residual = 0.498620343431, Final residual = 3.03877920002e-09, No Iterations 8
DICPCG:  Solving for p, Initial residual = 0.00936330666224, Final residual = 7.01101705935e-05, No Iterations 100
DICPCG:  Solving for p, Initial residual = 6.94969023288e-05, Final residual = 3.82050992321e-07, No Iterations 6
time step continuity errors : sum local = 3.16893799704e-07, global = -7.59824659439e-08, cumulative = -1.80760424842e-08
DILUPBiCGStab:  Solving for omega, Initial residual = 1.89660981962e-05, Final residual = 2.55436149681e-10, No Iterations 3
DILUPBiCGStab:  Solving for k, Initial residual = 0.00334992968331, Final residual = 3.17701900612e-09, No Iterations 5
ExecutionTime = 0.310185 s  ClockTime = 0 s

--> FOAM Warning :     functionObjects::volFieldValue minmaxdomain_scalar cannot find required object epsilon
--> FOAM Warning :     functionObjects::volFieldValue minmaxdomain_scalar cannot find required object nuTilda


volFieldValue mindomain_scalar write:
    min() of p = 0.00512386466228 at location (7.96 0.0995649406574 0.1) in cell 2999
    min() of k = 1.05825666109e-10 at location (2.44 0.0995649406574 0.1) in cell 929
    min() of omega = 5.09041257864 at location (1.88 0.0127006636087 0.1) in cell 691
    min() of nut = 1.55436976651e-15 at location (2.44 0.0995649406574 0.1) in cell 929
--> FOAM Warning :     functionObjects::volFieldValue mindomain_scalar cannot find required object epsilon
--> FOAM Warning :     functionObjects::volFieldValue mindomain_scalar cannot find required object nuTilda

volFieldValue mindomain_vector write:
    minMag() of U = 0.0248985426828 at location (7.96 0.0995649406574 0.1) in cell 2999

volFieldValue maxdomain_scalar write:
    max() of p = 1.68644022718 at location (0.04 0.0995649406574 0.1) in cell 29
    max() of k = 0.000157665779689 at location (7.96 0.0540518418325 0.1) in cell 2978
    max() of omega = 68082.6843067 at location (2.36 0.0995649406574 0.1) in cell 899
    max() of nut = 1.9894593557e-05 at location (0.04 0.0331297396555 0.1) in cell 4
--> FOAM Warning :     functionObjects::volFieldValue maxdomain_scalar cannot find required object epsilon
--> FOAM Warning :     functionObjects::volFieldValue maxdomain_scalar cannot find required object nuTilda

volFieldValue maxdomain_vector write:
    maxMag() of U = 1.53365408396 at location (7.96 0.0199789247164 0.1) in cell 2972

Time = 16s

DILUPBiCGStab:  Solving for Ux, Initial residual = 0.00351776788576, Final residual = 3.76792786719e-09, No Iterations 6
DILUPBiCGStab:  Solving for Uy, Initial residual = 0.03095788008, Final residual = 7.28473019989e-09, No Iterations 7
DILUPBiCGStab:  Solving for Uz, Initial residual = 0.488747497191, Final residual = 3.56573687595e-09, No Iterations 8
DICPCG:  Solving for p, Initial residual = 0.00862720299145, Final residual = 7.06860926398e-05, No Iterations 99
DICPCG:  Solving for p, Initial residual = 7.0118377254e-05, Final residual = 4.46775153857e-07, No Iterations 5
time step continuity errors : sum local = 3.73523849147e-07, global = -4.17355058829e-08, cumulative = -5.9811548367e-08
DILUPBiCGStab:  Solving for omega, Initial residual = 1.19541397219e-05, Final residual = 2.08538337795e-10, No Iterations 3
DILUPBiCGStab:  Solving for k, Initial residual = 0.00360833587405, Final residual = 8.70030770193e-09, No Iterations 4
ExecutionTime = 0.322964 s  ClockTime = 0 s

--> FOAM Warning :     functionObjects::volFieldValue minmaxdomain_scalar cannot find required object epsilon
--> FOAM Warning :     functionObjects::volFieldValue minmaxdomain_scalar cannot find required object nuTilda


volFieldValue mindomain_scalar write:
    min() of p = 0.0051208185711 at location (7.96 0.0995649406574 0.1) in cell 2999
    min() of k = 1.18890757644e-10 at location (2.44 0.0995649406574 0.1) in cell 929
    min() of omega = 4.99850269695 at location (2.04 0.00560560819348 0.1) in cell 750
    min() of nut = 1.74627012513e-15 at location (2.44 0.0995649406574 0.1) in cell 929
--> FOAM Warning :     functionObjects::volFieldValue mindomain_scalar cannot find required object epsilon
--> FOAM Warning :     functionObjects::volFieldValue mindomain_scalar cannot find required object nuTilda

volFieldValue mindomain_vector write:
    minMag() of U = 0.0240692445068 at location (7.96 0.0995649406574 0.1) in cell 2999

volFieldValue maxdomain_scalar write:
    max() of p = 1.7060007563 at location (0.04 0.0995649406574 0.1) in cell 29
    max() of k = 0.000180210315583 at location (7.96 0.0540518418325 0.1) in cell 2978
    max() of omega = 68082.6843067 at location (2.36 0.0995649406574 0.1) in cell 899
    max() of nut = 1.98930589445e-05 at location (0.04 0.0331297396555 0.1) in cell 4
--> FOAM Warning :     functionObjects::volFieldValue maxdomain_scalar cannot find required object epsilon
--> FOAM Warning :     functionObjects::volFieldValue maxdomain_scalar cannot find required object nuTilda

volFieldValue maxdomain_vector write:
    maxMag() of U = 1.55722817236 at location (7.96 0.0199789247164 0.1) in cell 2972

Time = 17s

DILUPBiCGStab:  Solving for Ux, Initial residual = 0.00308293541858, Final residual = 9.59058608171e-09, No Iterations 5
DILUPBiCGStab:  Solving for Uy, Initial residual = 0.0281338831459, Final residual = 5.40408478898e-09, No Iterations 7
DILUPBiCGStab:  Solving for Uz, Initial residual = 0.482587269734, Final residual = 3.89205210883e-09, No Iterations 8
DICPCG:  Solving for p, Initial residual = 0.00794795487583, Final residual = 7.59438313768e-05, No Iterations 99
DICPCG:  Solving for p, Initial residual = 7.53856949534e-05, Final residual = 4.15426233307e-07, No Iterations 5
time step continuity errors : sum local = 3.49745207987e-07, global = -5.91621784873e-08, cumulative = -1.18973726854e-07
DILUPBiCGStab:  Solving for omega, Initial residual = 6.77359641779e-06, Final residual = 1.57563664251e-10, No Iterations 3
DILUPBiCGStab:  Solving for k, Initial residual = 0.00384654851316, Final residual = 2.45651457922e-09, No Iterations 5
ExecutionTime = 0.335708 s  ClockTime = 0 s

--> FOAM Warning :     functionObjects::volFieldValue minmaxdomain_scalar cannot find required object epsilon
--> FOAM Warning :     functionObjects::volFieldValue minmaxdomain_scalar cannot find required object nuTilda


volFieldValue mindomain_scalar write:
    min() of p = 0.00511684747112 at location (7.96 0.0995649406574 0.1) in cell 2999
    min() of k = 1.33772366224e-10 at location (2.44 0.0995649406574 0.1) in cell 929
    min() of omega = 4.90855346653 at location (2.12 0.00560560819348 0.1) in cell 780
    min() of nut = 1.96485152703e-15 at location (2.44 0.0995649406574 0.1) in cell 929
--> FOAM Warning :     functionObjects::volFieldValue mindomain_scalar cannot find required object epsilon
--> FOAM Warning :     functionObjects::volFieldValue mindomain_scalar cannot find required object nuTilda

volFieldValue mindomain_vector write:
    minMag() of U = 0.0233474837536 at location (7.96 0.0995649406574 0.1) in cell 2999

volFieldValue maxdomain_scalar write:
    max() of p = 1.7234967858 at location (0.04 0.0995649406574 0.1) in cell 29
    max() of k = 0.00020780875231 at location (7.96 0.0583304451133 0.1) in cell 2979
    max() of omega = 68082.6843067 at location (2.36 0.0995649406574 0.1) in cell 899
    max() of nut = 1.98912043531e-05 at location (0.04 0.0331297396555 0.1) in cell 4
--> FOAM Warning :     functionObjects::volFieldValue maxdomain_scalar cannot find required object epsilon
--> FOAM Warning :     functionObjects::volFieldValue maxdomain_scalar cannot find required object nuTilda

volFieldValue maxdomain_vector write:
    maxMag() of U = 1.57953572889 at location (7.96 0.0199789247164 0.1) in cell 2972

Time = 18s

DILUPBiCGStab:  Solving for Ux, Initial residual = 0.00270001507268, Final residual = 8.24588914225e-09, No Iterations 5
DILUPBiCGStab:  Solving for Uy, Initial residual = 0.0257924653783, Final residual = 4.21751340704e-09, No Iterations 7
DILUPBiCGStab:  Solving for Uz, Initial residual = 0.489642865109, Final residual = 4.05674029139e-09, No Iterations 8
DICPCG:  Solving for p, Initial residual = 0.00726912983052, Final residual = 6.86931905789e-05, No Iterations 99
DICPCG:  Solving for p, Initial residual = 6.82309261985e-05, Final residual = 6.26068406374e-07, No Iterations 4
time step continuity errors : sum local = 5.30264675853e-07, global = -7.90555401323e-08, cumulative = -1.98029266987e-07
DILUPBiCGStab:  Solving for omega, Initial residual = 4.55670925275e-06, Final residual = 1.25897809201e-10, No Iterations 3
DILUPBiCGStab:  Solving for k, Initial residual = 0.0040681569535, Final residual = 5.85708453022e-09, No Iterations 4
ExecutionTime = 0.34916 s  ClockTime = 0 s

--> FOAM Warning :     functionObjects::volFieldValue minmaxdomain_scalar cannot find required object epsilon
--> FOAM Warning :     functionObjects::volFieldValue minmaxdomain_scalar cannot find required object nuTilda


volFieldValue mindomain_scalar write:
    min() of p = 0.00511275000023 at location (7.96 0.0995649406574 0.1) in cell 2999
    min() of k = 1.50816453634e-10 at location (2.44 0.0995649406574 0.1) in cell 929
    min() of omega = 4.83153174533 at location (2.12 0.00560560819348 0.1) in cell 780
    min() of nut = 2.21519546666e-15 at location (2.44 0.0995649406574 0.1) in cell 929
--> FOAM Warning :     functionObjects::volFieldValue mindomain_scalar cannot find required object epsilon
--> FOAM Warning :     functionObjects::volFieldValue mindomain_scalar cannot find required object nuTilda

volFieldValue mindomain_vector write:
    minMag() of U = 0.0227159829963 at location (7.96 0.0995649406574 0.1) in cell 2999

volFieldValue maxdomain_scalar write:
    max() of p = 1.73948011448 at location (0.04 0.0995649406574 0.1) in cell 29
    max() of k = 0.000240634046722 at location (7.96 0.0583304451133 0.1) in cell 2979
    max() of omega = 68082.6843067 at location (2.36 0.0995649406574 0.1) in cell 899
    max() of nut = 1.98891958852e-05 at location (0.04 0.0267991468552 0.1) in cell 3
--> FOAM Warning :     functionObjects::volFieldValue maxdomain_scalar cannot find required object epsilon
--> FOAM Warning :     functionObjects::volFieldValue maxdomain_scalar cannot find required object nuTilda

volFieldValue maxdomain_vector write:
    maxMag() of U = 1.60056744253 at location (7.96 0.0199789247164 0.1) in cell 2972

Time = 19s

DILUPBiCGStab:  Solving for Ux, Initial residual = 0.00236688259949, Final residual = 7.34948950012e-09, No Iterations 5
DILUPBiCGStab:  Solving for Uy, Initial residual = 0.0236378725996, Final residual = 4.02749224501e-09, No Iterations 7
DILUPBiCGStab:  Solving for Uz, Initial residual = 0.456938210259, Final residual = 2.23362749483e-09, No Iterations 8
DICPCG:  Solving for p, Initial residual = 0.0066518382495, Final residual = 6.56375486986e-05, No Iterations 99
DICPCG:  Solving for p, Initial residual = 6.52283662026e-05, Final residual = 5.77802814582e-07, No Iterations 4
time step continuity errors : sum local = 4.91922889835e-07, global = -8.29871582249e-08, cumulative = -2.81016425212e-07
DILUPBiCGStab:  Solving for omega, Initial residual = 2.59716311226e-06, Final residual = 9.93338938998e-11, No Iterations 3
DILUPBiCGStab:  Solving for k, Initial residual = 0.00426925373629, Final residual = 2.70627791265e-09, No Iterations 4
ExecutionTime = 0.36255 s  ClockTime = 0 s

--> FOAM Warning :     functionObjects::volFieldValue minmaxdomain_scalar cannot find required object epsilon
--> FOAM Warning :     functionObjects::volFieldValue minmaxdomain_scalar cannot find required object nuTilda


volFieldValue mindomain_scalar write:
    min() of p = 0.00510910237449 at location (7.96 0.0995649406574 0.1) in cell 2999
    min() of k = 1.69928784636e-10 at location (2.44 0.0995649406574 0.1) in cell 929
    min() of omega = 4.76645728839 at location (2.2 0.00560560819348 0.1) in cell 810
    min() of nut = 2.49591781473e-15 at location (2.44 0.0995649406574 0.1) in cell 929
--> FOAM Warning :     functionObjects::volFieldValue mindomain_scalar cannot find required object epsilon
--> FOAM Warning :     functionObjects::volFieldValue mindomain_scalar cannot find required object nuTilda

volFieldValue mindomain_vector write:
    minMag() of U = 0.0221611020535 at location (7.96 0.0995649406574 0.1) in cell 2999

volFieldValue maxdomain_scalar write:
    max() of p = 1.75391873408 at location (0.04 0.0995649406574 0.1) in cell 29
    max() of k = 0.000279411360751 at location (7.96 0.0583304451133 0.1) in cell 2979
    max() of omega = 68082.6843067 at location (2.36 0.0995649406574 0.1) in cell 899
    max() of nut = 1.9887374422e-05 at location (0.04 0.0267991468552 0.1) in cell 3
--> FOAM Warning :     functionObjects::volFieldValue maxdomain_scalar cannot find required object epsilon
--> FOAM Warning :     functionObjects::volFieldValue maxdomain_scalar cannot find required object nuTilda

volFieldValue maxdomain_vector write:
    maxMag() of U = 1.62032042353 at location (7.96 0.0199789247164 0.1) in cell 2972

Time = 20s

DILUPBiCGStab:  Solving for Ux, Initial residual = 0.00207614877108, Final residual = 6.28499518163e-09, No Iterations 5
DILUPBiCGStab:  Solving for Uy, Initial residual = 0.0215204226321, Final residual = 1.60644217233e-09, No Iterations 8
DILUPBiCGStab:  Solving for Uz, Initial residual = 0.497366407675, Final residual = 7.58502680039e-09, No Iterations 7
DICPCG:  Solving for p, Initial residual = 0.00606917453141, Final residual = 5.61009334097e-05, No Iterations 99
DICPCG:  Solving for p, Initial residual = 5.57706014698e-05, Final residual = 4.87191437266e-07, No Iterations 4
time step continuity errors : sum local = 4.16690569311e-07, global = -6.77776920385e-08, cumulative = -3.4879411725e-07
DILUPBiCGStab:  Solving for omega, Initial residual = 1.92710889537e-06, Final residual = 8.23237369235e-11, No Iterations 3
DILUPBiCGStab:  Solving for k, Initial residual = 0.00445063336114, Final residual = 7.87905030764e-09, No Iterations 4
ExecutionTime = 0.37656 s  ClockTime = 0 s

--> FOAM Warning :     functionObjects::volFieldValue minmaxdomain_scalar cannot find required object epsilon
--> FOAM Warning :     functionObjects::volFieldValue minmaxdomain_scalar cannot find required object nuTilda


volFieldValue mindomain_scalar write:
    min() of p = 0.00510639563184 at location (7.96 0.0995649406574 0.1) in cell 2999
    min() of k = 1.91293456142e-10 at location (2.36 0.0995649406574 0.1) in cell 899
    min() of omega = 4.71311608388 at location (2.28 0.00560560819348 0.1) in cell 840
    min() of nut = 2.80972259084e-15 at location (2.36 0.0995649406574 0.1) in cell 899
--> FOAM Warning :     functionObjects::volFieldValue mindomain_scalar cannot find required object epsilon
--> FOAM Warning :     functionObjects::volFieldValue mindomain_scalar cannot find required object nuTilda

volFieldValue mindomain_vector write:
    minMag() of U = 0.0216718590286 at location (7.96 0.0995649406574 0.1) in cell 2999

volFieldValue maxdomain_scalar write:
    max() of p = 1.76705406977 at location (0.04 0.0995649406574 0.1) in cell 29
    max() of k = 0.000325118336996 at location (7.96 0.0583304451133 0.1) in cell 2979
    max() of omega = 68082.6843067 at location (2.36 0.0995649406574 0.1) in cell 899
    max() of nut = 1.98859269403e-05 at location (0.04 0.0267991468552 0.1) in cell 3
--> FOAM Warning :     functionObjects::volFieldValue maxdomain_scalar cannot find required object epsilon
--> FOAM Warning :     functionObjects::volFieldValue maxdomain_scalar cannot find required object nuTilda

volFieldValue maxdomain_vector write:
    maxMag() of U = 1.63979837736 at location (7.96 0.0127006636087 0.1) in cell 2971

Time = 21s

DILUPBiCGStab:  Solving for Ux, Initial residual = 0.00181975364335, Final residual = 5.04297849643e-09, No Iterations 5
DILUPBiCGStab:  Solving for Uy, Initial residual = 0.0195157718625, Final residual = 8.70275423032e-09, No Iterations 7
DILUPBiCGStab:  Solving for Uz, Initial residual = 0.494864317457, Final residual = 7.21149963711e-09, No Iterations 8
DICPCG:  Solving for p, Initial residual = 0.00553342966999, Final residual = 4.8488542151e-05, No Iterations 99
DICPCG:  Solving for p, Initial residual = 4.8222821137e-05, Final residual = 4.4062992758e-07, No Iterations 5
time step continuity errors : sum local = 3.78314150674e-07, global = -3.36239846727e-08, cumulative = -3.82418101923e-07
DILUPBiCGStab:  Solving for omega, Initial residual = 1.13030175162e-06, Final residual = 6.56485360786e-11, No Iterations 3
DILUPBiCGStab:  Solving for k, Initial residual = 0.00461406218941, Final residual = 6.49551454234e-09, No Iterations 4
ExecutionTime = 0.390187 s  ClockTime = 0 s

--> FOAM Warning :     functionObjects::volFieldValue minmaxdomain_scalar cannot find required object epsilon
--> FOAM Warning :     functionObjects::volFieldValue minmaxdomain_scalar cannot find required object nuTilda


volFieldValue mindomain_scalar write:
    min() of p = 0.00510491343171 at location (7.96 0.0995649406574 0.1) in cell 2999
    min() of k = 2.14966879524e-10 at location (2.36 0.0995649406574 0.1) in cell 899
    min() of omega = 4.66935873086 at location (2.28 0.00560560819348 0.1) in cell 840
    min() of nut = 3.15743836649e-15 at location (2.36 0.0995649406574 0.1) in cell 899
--> FOAM Warning :     functionObjects::volFieldValue mindomain_scalar cannot find required object epsilon
--> FOAM Warning :     functionObjects::volFieldValue mindomain_scalar cannot find required object nuTilda

volFieldValue mindomain_vector write:
    minMag() of U = 0.0212393270674 at location (7.96 0.0995649406574 0.1) in cell 2999

volFieldValue maxdomain_scalar write:
    max() of p = 1.77899733178 at location (0.04 0.0995649406574 0.1) in cell 29
    max() of k = 0.000378875195725 at location (7.96 0.0583304451133 0.1) in cell 2979
    max() of omega = 68082.6843067 at location (2.36 0.0995649406574 0.1) in cell 899
    max() of nut = 1.98848393134e-05 at location (0.04 0.0267991468552 0.1) in cell 3
--> FOAM Warning :     functionObjects::volFieldValue maxdomain_scalar cannot find required object epsilon
--> FOAM Warning :     functionObjects::volFieldValue maxdomain_scalar cannot find required object nuTilda

volFieldValue maxdomain_vector write:
    maxMag() of U = 1.6592816553 at location (7.96 0.0127006636087 0.1) in cell 2971

Time = 22s

DILUPBiCGStab:  Solving for Ux, Initial residual = 0.00159253882471, Final residual = 4.14090693918e-09, No Iterations 5
DILUPBiCGStab:  Solving for Uy, Initial residual = 0.0177225473896, Final residual = 6.90039390347e-09, No Iterations 7
DILUPBiCGStab:  Solving for Uz, Initial residual = 0.488756465593, Final residual = 4.30903648076e-09, No Iterations 8
DICPCG:  Solving for p, Initial residual = 0.00504850642769, Final residual = 4.25307765223e-05, No Iterations 99
DICPCG:  Solving for p, Initial residual = 4.23101621701e-05, Final residual = 1.36390650385e-07, No Iterations 7
time step continuity errors : sum local = 1.17481725644e-07, global = -1.59225583536e-08, cumulative = -3.98340660276e-07
DILUPBiCGStab:  Solving for omega, Initial residual = 9.45085366521e-07, Final residual = 5.57527035832e-11, No Iterations 3
DILUPBiCGStab:  Solving for k, Initial residual = 0.00475976120786, Final residual = 5.66585754877e-09, No Iterations 4
ExecutionTime = 0.402899 s  ClockTime = 0 s

--> FOAM Warning :     functionObjects::volFieldValue minmaxdomain_scalar cannot find required object epsilon
--> FOAM Warning :     functionObjects::volFieldValue minmaxdomain_scalar cannot find required object nuTilda


volFieldValue mindomain_scalar write:
    min() of p = 0.00510481151889 at location (7.96 0.0995649406574 0.1) in cell 2999
    min() of k = 2.41128761771e-10 at location (2.36 0.0995649406574 0.1) in cell 899
    min() of omega = 4.63511921098 at location (2.28 0.00560560819348 0.1) in cell 840
    min() of nut = 3.54170468198e-15 at location (2.36 0.0995649406574 0.1) in cell 899
--> FOAM Warning :     functionObjects::volFieldValue mindomain_scalar cannot find required object epsilon
--> FOAM Warning :     functionObjects::volFieldValue mindomain_scalar cannot find required object nuTilda

volFieldValue mindomain_vector write:
    minMag() of U = 0.0208561671654 at location (7.96 0.0995649406574 0.1) in cell 2999

volFieldValue maxdomain_scalar write:
    max() of p = 1.78988810366 at location (0.04 0.0995649406574 0.1) in cell 29
    max() of k = 0.000441919565013 at location (7.96 0.0583304451133 0.1) in cell 2979
    max() of omega = 68082.6843067 at location (2.36 0.0995649406574 0.1) in cell 899
    max() of nut = 1.98839441119e-05 at location (0.04 0.0267991468552 0.1) in cell 3
--> FOAM Warning :     functionObjects::volFieldValue maxdomain_scalar cannot find required object epsilon
--> FOAM Warning :     functionObjects::volFieldValue maxdomain_scalar cannot find required object nuTilda

volFieldValue maxdomain_vector write:
    maxMag() of U = 1.6775043288 at location (7.96 0.0127006636087 0.1) in cell 2971

Time = 23s

DILUPBiCGStab:  Solving for Ux, Initial residual = 0.00138995505736, Final residual = 3.49493190247e-09, No Iterations 5
DILUPBiCGStab:  Solving for Uy, Initial residual = 0.0161522087115, Final residual = 6.10561500673e-09, No Iterations 7
DILUPBiCGStab:  Solving for Uz, Initial residual = 0.485519387408, Final residual = 4.57848232666e-09, No Iterations 8
DICPCG:  Solving for p, Initial residual = 0.00457655052847, Final residual = 2.71350644171e-05, No Iterations 99
DICPCG:  Solving for p, Initial residual = 2.70031476583e-05, Final residual = 2.00775271028e-07, No Iterations 6
time step continuity errors : sum local = 1.73385089152e-07, global = -8.18822374738e-09, cumulative = -4.06528884024e-07
DILUPBiCGStab:  Solving for omega, Initial residual = 5.92603196815e-07, Final residual = 4.65733653959e-11, No Iterations 3
DILUPBiCGStab:  Solving for k, Initial residual = 0.00488517535903, Final residual = 5.02491979303e-09, No Iterations 4
ExecutionTime = 0.416179 s  ClockTime = 0 s

--> FOAM Warning :     functionObjects::volFieldValue minmaxdomain_scalar cannot find required object epsilon
--> FOAM Warning :     functionObjects::volFieldValue minmaxdomain_scalar cannot find required object nuTilda


volFieldValue mindomain_scalar write:
    min() of p = 0.00510637208377 at location (7.96 0.0995649406574 0.1) in cell 2999
    min() of k = 2.42990975675e-10 at location (0.36 0.0995649406574 0.1) in cell 149
    min() of omega = 4.60739185219 at location (2.36 0.00560560819348 0.1) in cell 870
    min() of nut = 3.56905692173e-15 at location (0.36 0.0995649406574 0.1) in cell 149
--> FOAM Warning :     functionObjects::volFieldValue mindomain_scalar cannot find required object epsilon
--> FOAM Warning :     functionObjects::volFieldValue mindomain_scalar cannot find required object nuTilda

volFieldValue mindomain_vector write:
    minMag() of U = 0.0205163130639 at location (7.96 0.0995649406574 0.1) in cell 2999

volFieldValue maxdomain_scalar write:
    max() of p = 1.79984274456 at location (0.04 0.0995649406574 0.1) in cell 29
    max() of k = 0.000515509918028 at location (7.96 0.0583304451133 0.1) in cell 2979
    max() of omega = 68082.6843067 at location (2.36 0.0995649406574 0.1) in cell 899
    max() of nut = 1.98830344573e-05 at location (0.04 0.0267991468552 0.1) in cell 3
--> FOAM Warning :     functionObjects::volFieldValue maxdomain_scalar cannot find required object epsilon
--> FOAM Warning :     functionObjects::volFieldValue maxdomain_scalar cannot find required object nuTilda

volFieldValue maxdomain_vector write:
    maxMag() of U = 1.6944788441 at location (7.96 0.0127006636087 0.1) in cell 2971

Time = 24s

DILUPBiCGStab:  Solving for Ux, Initial residual = 0.00120989303088, Final residual = 2.88795971035e-09, No Iterations 5
DILUPBiCGStab:  Solving for Uy, Initial residual = 0.0147102622263, Final residual = 5.21575214219e-09, No Iterations 7
DILUPBiCGStab:  Solving for Uz, Initial residual = 0.479508364641, Final residual = 5.2116075686e-09, No Iterations 7
DICPCG:  Solving for p, Initial residual = 0.00415110232121, Final residual = 3.54235382657e-05, No Iterations 99
DICPCG:  Solving for p, Initial residual = 3.52590842513e-05, Final residual = 3.09950507667e-07, No Iterations 6
time step continuity errors : sum local = 2.68213533589e-07, global = -1.83631639186e-08, cumulative = -4.24892047942e-07
DILUPBiCGStab:  Solving for omega, Initial residual = 5.41596578667e-07, Final residual = 3.95967969653e-11, No Iterations 3
DILUPBiCGStab:  Solving for k, Initial residual = 0.00499116406224, Final residual = 4.36383931064e-09, No Iterations 4
ExecutionTime = 0.43018 s  ClockTime = 0 s

--> FOAM Warning :     functionObjects::volFieldValue minmaxdomain_scalar cannot find required object epsilon
--> FOAM Warning :     functionObjects::volFieldValue minmaxdomain_scalar cannot find required object nuTilda


volFieldValue mindomain_scalar write:
    min() of p = 0.00510963411832 at location (7.96 0.0995649406574 0.1) in cell 2999
    min() of k = 2.42164137905e-10 at location (0.36 0.0995649406574 0.1) in cell 149
    min() of omega = 4.58536903069 at location (2.36 0.00560560819348 0.1) in cell 870
    min() of nut = 3.55691230995e-15 at location (0.36 0.0995649406574 0.1) in cell 149
--> FOAM Warning :     functionObjects::volFieldValue mindomain_scalar cannot find required object epsilon
--> FOAM Warning :     functionObjects::volFieldValue mindomain_scalar cannot find required object nuTilda

volFieldValue mindomain_vector write:
    minMag() of U = 0.0202147459373 at location (7.96 0.0995649406574 0.1) in cell 2999

volFieldValue maxdomain_scalar write:
    max() of p = 1.80893007347 at location (0.04 0.0995649406574 0.1) in cell 29
    max() of k = 0.00060114536461 at location (7.96 0.0583304451133 0.1) in cell 2979
    max() of omega = 68082.6843067 at location (2.36 0.0995649406574 0.1) in cell 899
    max() of nut = 1.98833487779e-05 at location (0.04 0.038990531642 0.1) in cell 5
--> FOAM Warning :     functionObjects::volFieldValue maxdomain_scalar cannot find required object epsilon
--> FOAM Warning :     functionObjects::volFieldValue maxdomain_scalar cannot find required object nuTilda

volFieldValue maxdomain_vector write:
    maxMag() of U = 1.71024961312 at location (7.96 0.0127006636087 0.1) in cell 2971

Time = 25s

DILUPBiCGStab:  Solving for Ux, Initial residual = 0.00105029476754, Final residual = 8.23297324911e-09, No Iterations 5
DILUPBiCGStab:  Solving for Uy, Initial residual = 0.0134519435697, Final residual = 4.49240919162e-09, No Iterations 7
DILUPBiCGStab:  Solving for Uz, Initial residual = 0.506553597737, Final residual = 2.05055377785e-09, No Iterations 8
DICPCG:  Solving for p, Initial residual = 0.00376097437935, Final residual = 3.57567324428e-05, No Iterations 99
DICPCG:  Solving for p, Initial residual = 3.55986102786e-05, Final residual = 2.89006390556e-07, No Iterations 6
time step continuity errors : sum local = 2.50459945402e-07, global = -2.4926916368e-08, cumulative = -4.4981896431e-07
DILUPBiCGStab:  Solving for omega, Initial residual = 3.6759539449e-07, Final residual = 3.29294223202e-11, No Iterations 3
DILUPBiCGStab:  Solving for k, Initial residual = 0.005078008542, Final residual = 3.87385990834e-09, No Iterations 4
ExecutionTime = 0.444267 s  ClockTime = 0 s

--> FOAM Warning :     functionObjects::volFieldValue minmaxdomain_scalar cannot find required object epsilon
--> FOAM Warning :     functionObjects::volFieldValue minmaxdomain_scalar cannot find required object nuTilda


volFieldValue mindomain_scalar write:
    min() of p = 0.00511518430495 at location (7.96 0.0995649406574 0.1) in cell 2999
    min() of k = 2.4161319525e-10 at location (0.36 0.0995649406574 0.1) in cell 149
    min() of omega = 4.56749788474 at location (2.36 0.00560560819348 0.1) in cell 870
    min() of nut = 3.54882005183e-15 at location (0.36 0.0995649406574 0.1) in cell 149
--> FOAM Warning :     functionObjects::volFieldValue mindomain_scalar cannot find required object epsilon
--> FOAM Warning :     functionObjects::volFieldValue mindomain_scalar cannot find required object nuTilda

volFieldValue mindomain_vector write:
    minMag() of U = 0.0199472810026 at location (7.96 0.0995649406574 0.1) in cell 2999

volFieldValue maxdomain_scalar write:
    max() of p = 1.81718566025 at location (0.04 0.0995649406574 0.1) in cell 29
    max() of k = 0.000700458261845 at location (7.96 0.0583304451133 0.1) in cell 2979
    max() of omega = 68082.6843067 at location (2.36 0.0995649406574 0.1) in cell 899
    max() of nut = 1.9883623713e-05 at location (0.04 0.038990531642 0.1) in cell 5
--> FOAM Warning :     functionObjects::volFieldValue maxdomain_scalar cannot find required object epsilon
--> FOAM Warning :     functionObjects::volFieldValue maxdomain_scalar cannot find required object nuTilda

volFieldValue maxdomain_vector write:
    maxMag() of U = 1.72478737756 at location (7.96 0.0127006636087 0.1) in cell 2971

Time = 26s

DILUPBiCGStab:  Solving for Ux, Initial residual = 0.00090835637851, Final residual = 6.92663902481e-09, No Iterations 5
DILUPBiCGStab:  Solving for Uy, Initial residual = 0.0122770949388, Final residual = 4.21846959171e-09, No Iterations 7
DILUPBiCGStab:  Solving for Uz, Initial residual = 0.48762962444, Final residual = 2.18179915451e-09, No Iterations 8
DICPCG:  Solving for p, Initial residual = 0.00339907413453, Final residual = 2.71727882514e-05, No Iterations 99
DICPCG:  Solving for p, Initial residual = 2.70596777889e-05, Final residual = 1.91286787257e-07, No Iterations 6
time step continuity errors : sum local = 1.65911243672e-07, global = -2.03914673809e-08, cumulative = -4.70210431691e-07
DILUPBiCGStab:  Solving for omega, Initial residual = 3.4696680203e-07, Final residual = 2.78007777435e-11, No Iterations 3
DILUPBiCGStab:  Solving for k, Initial residual = 0.00514707019321, Final residual = 3.67566612647e-09, No Iterations 4
ExecutionTime = 0.457855 s  ClockTime = 0 s

--> FOAM Warning :     functionObjects::volFieldValue minmaxdomain_scalar cannot find required object epsilon
--> FOAM Warning :     functionObjects::volFieldValue minmaxdomain_scalar cannot find required object nuTilda


volFieldValue mindomain_scalar write:
    min() of p = 0.00512312584125 at location (7.96 0.0995649406574 0.1) in cell 2999
    min() of k = 2.41287415433e-10 at location (0.36 0.0995649406574 0.1) in cell 149
    min() of omega = 4.55238847405 at location (2.36 0.00560560819348 0.1) in cell 870
    min() of nut = 3.54403499054e-15 at location (0.36 0.0995649406574 0.1) in cell 149
--> FOAM Warning :     functionObjects::volFieldValue mindomain_scalar cannot find required object epsilon
--> FOAM Warning :     functionObjects::volFieldValue mindomain_scalar cannot find required object nuTilda

volFieldValue mindomain_vector write:
    minMag() of U = 0.0197105052597 at location (7.96 0.0995649406574 0.1) in cell 2999

volFieldValue maxdomain_scalar write:
    max() of p = 1.82472108264 at location (0.04 0.0995649406574 0.1) in cell 29
    max() of k = 0.000815214887556 at location (7.96 0.0583304451133 0.1) in cell 2979
    max() of omega = 68082.6843067 at location (2.36 0.0995649406574 0.1) in cell 899
    max() of nut = 1.9883564975e-05 at location (0.04 0.038990531642 0.1) in cell 5
--> FOAM Warning :     functionObjects::volFieldValue maxdomain_scalar cannot find required object epsilon
--> FOAM Warning :     functionObjects::volFieldValue maxdomain_scalar cannot find required object nuTilda

volFieldValue maxdomain_vector write:
    maxMag() of U = 1.73813031895 at location (7.96 0.0127006636087 0.1) in cell 2971

Time = 27s

DILUPBiCGStab:  Solving for Ux, Initial residual = 0.00078195613946, Final residual = 5.82853168903e-09, No Iterations 5
DILUPBiCGStab:  Solving for Uy, Initial residual = 0.0111711886782, Final residual = 7.17369561802e-09, No Iterations 6
DILUPBiCGStab:  Solving for Uz, Initial residual = 0.501506164603, Final residual = 2.66844423251e-09, No Iterations 8
DICPCG:  Solving for p, Initial residual = 0.00308806832277, Final residual = 1.85461684337e-05, No Iterations 99
DICPCG:  Solving for p, Initial residual = 1.847339016e-05, Final residual = 1.6648806451e-07, No Iterations 4
time step continuity errors : sum local = 1.44421890459e-07, global = -2.41919053859e-08, cumulative = -4.94402337077e-07
DILUPBiCGStab:  Solving for omega, Initial residual = 2.52611907022e-07, Final residual = 2.19076636247e-11, No Iterations 3
DILUPBiCGStab:  Solving for k, Initial residual = 0.00520114081443, Final residual = 3.56484893879e-09, No Iterations 4
ExecutionTime = 0.471465 s  ClockTime = 0 s

--> FOAM Warning :     functionObjects::volFieldValue minmaxdomain_scalar cannot find required object epsilon
--> FOAM Warning :     functionObjects::volFieldValue minmaxdomain_scalar cannot find required object nuTilda


volFieldValue mindomain_scalar write:
    min() of p = 0.00513333397421 at location (7.96 0.0995649406574 0.1) in cell 2999
    min() of k = 2.4112550835e-10 at location (0.36 0.0995649406574 0.1) in cell 149
    min() of omega = 4.5391136091 at location (2.36 0.00560560819348 0.1) in cell 870
    min() of nut = 3.54165689566e-15 at location (0.36 0.0995649406574 0.1) in cell 149
--> FOAM Warning :     functionObjects::volFieldValue mindomain_scalar cannot find required object epsilon
--> FOAM Warning :     functionObjects::volFieldValue mindomain_scalar cannot find required object nuTilda

volFieldValue mindomain_vector write:
    minMag() of U = 0.0195015150922 at location (7.96 0.0995649406574 0.1) in cell 2999

volFieldValue maxdomain_scalar write:
    max() of p = 1.83160916006 at location (0.04 0.0995649406574 0.1) in cell 29
    max() of k = 0.000947316590006 at location (7.96 0.0583304451133 0.1) in cell 2979
    max() of omega = 68082.6843067 at location (2.36 0.0995649406574 0.1) in cell 899
    max() of nut = 2.00933416957e-05 at location (7.96 0.0444108498155 0.1) in cell 2976
--> FOAM Warning :     functionObjects::volFieldValue maxdomain_scalar cannot find required object epsilon
--> FOAM Warning :     functionObjects::volFieldValue maxdomain_scalar cannot find required object nuTilda

volFieldValue maxdomain_vector write:
    maxMag() of U = 1.7503249876 at location (7.96 0.0127006636087 0.1) in cell 2971

Time = 28s

DILUPBiCGStab:  Solving for Ux, Initial residual = 0.000669281646116, Final residual = 4.86156287976e-09, No Iterations 5
DILUPBiCGStab:  Solving for Uy, Initial residual = 0.0102144589278, Final residual = 6.72166938804e-09, No Iterations 6
DILUPBiCGStab:  Solving for Uz, Initial residual = 0.470308128929, Final residual = 5.24053758721e-09, No Iterations 8
DICPCG:  Solving for p, Initial residual = 0.00279988649434, Final residual = 9.99739446178e-06, No Iterations 100
DICPCG:  Solving for p, Initial residual = 9.95997981012e-06, Final residual = 6.10010929709e-08, No Iterations 4
time step continuity errors : sum local = 5.28917086164e-08, global = -1.10638562924e-08, cumulative = -5.0546619337e-07
DILUPBiCGStab:  Solving for omega, Initial residual = 2.34094332502e-07, Final residual = 1.90733515269e-11, No Iterations 3
DILUPBiCGStab:  Solving for k, Initial residual = 0.00524188732245, Final residual = 3.39723566086e-09, No Iterations 4
ExecutionTime = 0.485432 s  ClockTime = 0 s

--> FOAM Warning :     functionObjects::volFieldValue minmaxdomain_scalar cannot find required object epsilon
--> FOAM Warning :     functionObjects::volFieldValue minmaxdomain_scalar cannot find required object nuTilda


volFieldValue mindomain_scalar write:
    min() of p = 0.00514587532468 at location (7.96 0.0995649406574 0.1) in cell 2999
    min() of k = 2.41079345704e-10 at location (0.36 0.0995649406574 0.1) in cell 149
    min() of omega = 4.52719745739 at location (2.36 0.00560560819348 0.1) in cell 870
    min() of nut = 3.54097885769e-15 at location (0.36 0.0995649406574 0.1) in cell 149
--> FOAM Warning :     functionObjects::volFieldValue mindomain_scalar cannot find required object epsilon
--> FOAM Warning :     functionObjects::volFieldValue mindomain_scalar cannot find required object nuTilda

volFieldValue mindomain_vector write:
    minMag() of U = 0.019317850028 at location (7.96 0.0995649406574 0.1) in cell 2999

volFieldValue maxdomain_scalar write:
    max() of p = 1.83791117134 at location (0.04 0.0995649406574 0.1) in cell 29
    max() of k = 0.00109879186119 at location (7.96 0.0583304451133 0.1) in cell 2979
    max() of omega = 68082.6843067 at location (2.36 0.0995649406574 0.1) in cell 899
    max() of nut = 2.26861501643e-05 at location (7.96 0.0444108498155 0.1) in cell 2976
--> FOAM Warning :     functionObjects::volFieldValue maxdomain_scalar cannot find required object epsilon
--> FOAM Warning :     functionObjects::volFieldValue maxdomain_scalar cannot find required object nuTilda

volFieldValue maxdomain_vector write:
    maxMag() of U = 1.76140449004 at location (7.96 0.0127006636087 0.1) in cell 2971

Time = 29s

DILUPBiCGStab:  Solving for Ux, Initial residual = 0.000568487833733, Final residual = 3.9604332822e-09, No Iterations 5
DILUPBiCGStab:  Solving for Uy, Initial residual = 0.00937943546967, Final residual = 7.94675917763e-09, No Iterations 6
DILUPBiCGStab:  Solving for Uz, Initial residual = 0.476951025111, Final residual = 9.8408516551e-09, No Iterations 7
DICPCG:  Solving for p, Initial residual = 0.00253959981713, Final residual = 1.49486718986e-05, No Iterations 99
DICPCG:  Solving for p, Initial residual = 1.48944217952e-05, Final residual = 9.50625898122e-08, No Iterations 4
time step continuity errors : sum local = 8.23430449523e-08, global = -1.40710475087e-08, cumulative = -5.19537240878e-07
DILUPBiCGStab:  Solving for omega, Initial residual = 1.78193146526e-07, Final residual = 1.63801398405e-11, No Iterations 3
DILUPBiCGStab:  Solving for k, Initial residual = 0.00526992294501, Final residual = 3.35820986586e-09, No Iterations 4
ExecutionTime = 0.498599 s  ClockTime = 0 s

--> FOAM Warning :     functionObjects::volFieldValue minmaxdomain_scalar cannot find required object epsilon
--> FOAM Warning :     functionObjects::volFieldValue minmaxdomain_scalar cannot find required object nuTilda


volFieldValue mindomain_scalar write:
    min() of p = 0.00516079548545 at location (7.96 0.0995649406574 0.1) in cell 2999
[...]
    min() of k = 2.42255339598e-10 at location (0.36 0.0995649406574 0.1) in cell 149
    min() of omega = 4.48469003095 at location (2.36 0.00560560819348 0.1) in cell 870
    min() of nut = 3.55825188247e-15 at location (0.36 0.0995649406574 0.1) in cell 149
--> FOAM Warning :     functionObjects::volFieldValue mindomain_scalar cannot find required object epsilon
--> FOAM Warning :     functionObjects::volFieldValue mindomain_scalar cannot find required object nuTilda

volFieldValue mindomain_vector write:
    minMag() of U = 0.0200274358552 at location (3.4 0.0995649406574 0.1) in cell 1289

volFieldValue maxdomain_scalar write:
    max() of p = 1.90451997877 at location (0.04 0.0995649406574 0.1) in cell 29
    max() of k = 0.0144990367983 at location (7 0.0622835257241 0.1) in cell 2620
    max() of omega = 68082.6843067 at location (2.36 0.0995649406574 0.1) in cell 899
    max() of nut = 0.000469000534286 at location (7.96 0.038990531642 0.1) in cell 2975
--> FOAM Warning :     functionObjects::volFieldValue maxdomain_scalar cannot find required object epsilon
--> FOAM Warning :     functionObjects::volFieldValue maxdomain_scalar cannot find required object nuTilda

volFieldValue maxdomain_vector write:
    maxMag() of U = 1.75002851924 at location (5.4 0.00560560819348 0.1) in cell 2010

Time = 998s

DILUPBiCGStab:  Solving for Ux, Initial residual = 2.53270369609e-14, Final residual = 6.20762171094e-17, No Iterations 3
DILUPBiCGStab:  Solving for Uy, Initial residual = 8.86425012192e-12, Final residual = 6.15263942639e-15, No Iterations 3
DILUPBiCGStab:  Solving for Uz, Initial residual = 0.502737186532, Final residual = 3.22149672961e-09, No Iterations 8
DICPCG:  Solving for p, Initial residual = 3.19422427029e-12, Final residual = 1.13915964139e-12, No Iterations 3
DICPCG:  Solving for p, Initial residual = 3.77092974193e-12, Final residual = 1.28037114376e-12, No Iterations 3
time step continuity errors : sum local = 2.56631601216e-12, global = 7.89647964575e-14, cumulative = -6.34054880679e-07
DILUPBiCGStab:  Solving for omega, Initial residual = 1.97017728456e-16, Final residual = 6.83256999093e-21, No Iterations 3
DILUPBiCGStab:  Solving for k, Initial residual = 4.6061687278e-15, Final residual = 2.45711285824e-18, No Iterations 3
ExecutionTime = 11.297677 s  ClockTime = 12 s

--> FOAM Warning :     functionObjects::volFieldValue minmaxdomain_scalar cannot find required object epsilon
--> FOAM Warning :     functionObjects::volFieldValue minmaxdomain_scalar cannot find required object nuTilda


volFieldValue mindomain_scalar write:
    min() of p = 0.00683973700117 at location (7.96 0.00560560819348 0.1) in cell 2970
    min() of k = 2.42255339598e-10 at location (0.36 0.0995649406574 0.1) in cell 149
    min() of omega = 4.48469003095 at location (2.36 0.00560560819348 0.1) in cell 870
    min() of nut = 3.55825188247e-15 at location (0.36 0.0995649406574 0.1) in cell 149
--> FOAM Warning :     functionObjects::volFieldValue mindomain_scalar cannot find required object epsilon
--> FOAM Warning :     functionObjects::volFieldValue mindomain_scalar cannot find required object nuTilda

volFieldValue mindomain_vector write:
    minMag() of U = 0.0200274358552 at location (3.4 0.0995649406574 0.1) in cell 1289

volFieldValue maxdomain_scalar write:
    max() of p = 1.90451997877 at location (0.04 0.0995649406574 0.1) in cell 29
    max() of k = 0.0144990367983 at location (7 0.0622835257241 0.1) in cell 2620
    max() of omega = 68082.6843067 at location (2.36 0.0995649406574 0.1) in cell 899
    max() of nut = 0.000469000534286 at location (7.96 0.038990531642 0.1) in cell 2975
--> FOAM Warning :     functionObjects::volFieldValue maxdomain_scalar cannot find required object epsilon
--> FOAM Warning :     functionObjects::volFieldValue maxdomain_scalar cannot find required object nuTilda

volFieldValue maxdomain_vector write:
    maxMag() of U = 1.75002851924 at location (5.4 0.00560560819348 0.1) in cell 2010

Time = 999s

DILUPBiCGStab:  Solving for Ux, Initial residual = 2.37818827601e-14, Final residual = 1.59628979777e-16, No Iterations 3
DILUPBiCGStab:  Solving for Uy, Initial residual = 9.01344406765e-12, Final residual = 6.53963222834e-15, No Iterations 3
DILUPBiCGStab:  Solving for Uz, Initial residual = 0.510875008453, Final residual = 8.49527792775e-09, No Iterations 7
DICPCG:  Solving for p, Initial residual = 3.24702005493e-12, Final residual = 9.35767487441e-13, No Iterations 3
DICPCG:  Solving for p, Initial residual = 3.80659354528e-12, Final residual = 2.02879750387e-12, No Iterations 3
time step continuity errors : sum local = 2.53854939418e-12, global = 7.97002518021e-14, cumulative = -6.34054800979e-07
DILUPBiCGStab:  Solving for omega, Initial residual = 2.06943936966e-16, Final residual = 7.39546168972e-21, No Iterations 3
DILUPBiCGStab:  Solving for k, Initial residual = 4.19740933194e-15, Final residual = 4.18675485447e-18, No Iterations 3
ExecutionTime = 11.307551 s  ClockTime = 12 s

--> FOAM Warning :     functionObjects::volFieldValue minmaxdomain_scalar cannot find required object epsilon
--> FOAM Warning :     functionObjects::volFieldValue minmaxdomain_scalar cannot find required object nuTilda


volFieldValue mindomain_scalar write:
    min() of p = 0.00683973700117 at location (7.96 0.00560560819348 0.1) in cell 2970
    min() of k = 2.42255339598e-10 at location (0.36 0.0995649406574 0.1) in cell 149
    min() of omega = 4.48469003095 at location (2.36 0.00560560819348 0.1) in cell 870
    min() of nut = 3.55825188247e-15 at location (0.36 0.0995649406574 0.1) in cell 149
--> FOAM Warning :     functionObjects::volFieldValue mindomain_scalar cannot find required object epsilon
--> FOAM Warning :     functionObjects::volFieldValue mindomain_scalar cannot find required object nuTilda

volFieldValue mindomain_vector write:
    minMag() of U = 0.0200274358552 at location (3.4 0.0995649406574 0.1) in cell 1289

volFieldValue maxdomain_scalar write:
    max() of p = 1.90451997877 at location (0.04 0.0995649406574 0.1) in cell 29
    max() of k = 0.0144990367983 at location (7 0.0622835257241 0.1) in cell 2620
    max() of omega = 68082.6843067 at location (2.36 0.0995649406574 0.1) in cell 899
    max() of nut = 0.000469000534286 at location (7.96 0.038990531642 0.1) in cell 2975
--> FOAM Warning :     functionObjects::volFieldValue maxdomain_scalar cannot find required object epsilon
--> FOAM Warning :     functionObjects::volFieldValue maxdomain_scalar cannot find required object nuTilda

volFieldValue maxdomain_vector write:
    maxMag() of U = 1.75002851924 at location (5.4 0.00560560819348 0.1) in cell 2010

Time = 1000s

DILUPBiCGStab:  Solving for Ux, Initial residual = 2.28827056573e-14, Final residual = 2.06486831114e-16, No Iterations 3
DILUPBiCGStab:  Solving for Uy, Initial residual = 8.72747487659e-12, Final residual = 7.09013213231e-15, No Iterations 3
DILUPBiCGStab:  Solving for Uz, Initial residual = 0.502630962506, Final residual = 8.77384200708e-09, No Iterations 8
DICPCG:  Solving for p, Initial residual = 3.1758204886e-12, Final residual = 8.39005952647e-13, No Iterations 3
DICPCG:  Solving for p, Initial residual = 3.905166439e-12, Final residual = 1.48166277746e-12, No Iterations 3
time step continuity errors : sum local = 2.54252079665e-12, global = 8.04849491191e-14, cumulative = -6.34054720494e-07
DILUPBiCGStab:  Solving for omega, Initial residual = 2.03463618346e-16, Final residual = 3.40608533752e-20, No Iterations 3
DILUPBiCGStab:  Solving for k, Initial residual = 3.96113575049e-15, Final residual = 9.24754559644e-18, No Iterations 3
ExecutionTime = 11.317905 s  ClockTime = 12 s

--> FOAM Warning :     functionObjects::volFieldValue minmaxdomain_scalar cannot find required object epsilon
--> FOAM Warning :     functionObjects::volFieldValue minmaxdomain_scalar cannot find required object nuTilda


volFieldValue mindomain_scalar write:
    min() of p = 0.00683973700116 at location (7.96 0.00560560819348 0.1) in cell 2970
    min() of k = 2.42255339598e-10 at location (0.36 0.0995649406574 0.1) in cell 149
    min() of omega = 4.48469003095 at location (2.36 0.00560560819348 0.1) in cell 870
    min() of nut = 3.55825188247e-15 at location (0.36 0.0995649406574 0.1) in cell 149
--> FOAM Warning :     functionObjects::volFieldValue mindomain_scalar cannot find required object epsilon
--> FOAM Warning :     functionObjects::volFieldValue mindomain_scalar cannot find required object nuTilda

volFieldValue mindomain_vector write:
    minMag() of U = 0.0200274358552 at location (3.4 0.0995649406574 0.1) in cell 1289

volFieldValue maxdomain_scalar write:
    max() of p = 1.90451997877 at location (0.04 0.0995649406574 0.1) in cell 29
    max() of k = 0.0144990367983 at location (7 0.0622835257241 0.1) in cell 2620
    max() of omega = 68082.6843067 at location (2.36 0.0995649406574 0.1) in cell 899
    max() of nut = 0.000469000534286 at location (7.96 0.038990531642 0.1) in cell 2975
--> FOAM Warning :     functionObjects::volFieldValue maxdomain_scalar cannot find required object epsilon
--> FOAM Warning :     functionObjects::volFieldValue maxdomain_scalar cannot find required object nuTilda

volFieldValue maxdomain_vector write:
    maxMag() of U = 1.75002851924 at location (5.4 0.00560560819348 0.1) in cell 2010

End

/*---------------------------------------------------------------------------*\
  =========                 |
  \\      /  F ield         | OpenFOAM: The Open Source CFD Toolbox
   \\    /   O peration     | Website:  https://openfoam.org
    \\  /    A nd           | Version:  12
     \\/     M anipulation  |
\*---------------------------------------------------------------------------*/
Build  : 12-86e126a7bc4d
Exec   : foamPostProcess -solver incompressibleFluid -func wallShearStress -noZero -noFunctionObjects -latestTime
Date   : Jun 22 2026
Time   : 09:32:27
Host   : "NotebookdoDan"
PID    : 29791
I/O    : uncollated
Case   : /home/danilom/OpenFOAM/danilom-12/run/GT1/turbulent_wedge_Viscoso
nProcs : 1
sigFpe : Enabling floating point exception trapping (FOAM_SIGFPE).
fileModificationChecking : Monitoring run-time modified files using timeStampMaster (fileModificationSkew 10)
allowSystemOperations : Allowing user-supplied system call operations

// * * * * * * * * * * * * * * * * * * * * * * * * * * * * * * * * * * * * * //
Create time

Create mesh for time = 1000

wallShearStress wallShearStress:
    processing all wall patches

Time = 1000s
Selecting solver incompressibleFluid
Selecting viscosity model constant
Selecting turbulence model type RAS
Selecting RAS turbulence model kOmega2006
RAS
{
    RASModel        kOmega2006;
    turbulence      on;
    printCoeffs     on;
    betaStar        0.09;
    beta0           0.0708;
    gamma           0.52;
    Clim            0.875;
    sigmaDo         0.125;
    alphaK          0.6;
    alphaOmega      0.5;
}

No MRF models present

wallShearStress wallShearStress write:
    writing object wallShearStress
    min/max(top) = (-0.0377684553269 -2.34590001747e-07 -7.6715275456e-17), (-0.00715558303669 0.00115368989056 1.14232160837e-16)


End

/*---------------------------------------------------------------------------*\
  =========                 |
  \\      /  F ield         | OpenFOAM: The Open Source CFD Toolbox
   \\    /   O peration     | Website:  https://openfoam.org
    \\  /    A nd           | Version:  12
     \\/     M anipulation  |
\*---------------------------------------------------------------------------*/
Build  : 12-86e126a7bc4d
Exec   : foamPostProcess -solver incompressibleFluid -func yPlus
Date   : Jun 22 2026
Time   : 09:32:27
Host   : "NotebookdoDan"
PID    : 29792
I/O    : uncollated
Case   : /home/danilom/OpenFOAM/danilom-12/run/GT1/turbulent_wedge_Viscoso
nProcs : 1
sigFpe : Enabling floating point exception trapping (FOAM_SIGFPE).
fileModificationChecking : Monitoring run-time modified files using timeStampMaster (fileModificationSkew 10)
allowSystemOperations : Allowing user-supplied system call operations

// * * * * * * * * * * * * * * * * * * * * * * * * * * * * * * * * * * * * * //
Create time

Create mesh for time = 0

Time = 0s
Selecting solver incompressibleFluid
Selecting viscosity model constant
Selecting turbulence model type RAS
Selecting RAS turbulence model kOmega2006
RAS
{
    RASModel        kOmega2006;
    turbulence      on;
    printCoeffs     on;
    betaStar        0.09;
    beta0           0.0708;
    gamma           0.52;
    Clim            0.875;
    sigmaDo         0.125;
    alphaK          0.6;
    alphaOmega      0.5;
}

No MRF models present

yPlus yPlus write:
    writing object yPlus
    patch top y+ : min = 1.67352175526, max = 1.67352175526, average = 1.67352175526


Time = 100s
Selecting solver incompressibleFluid
Selecting viscosity model constant
Selecting turbulence model type RAS
Selecting RAS turbulence model kOmega2006
RAS
{
    RASModel        kOmega2006;
    turbulence      on;
    printCoeffs     on;
    betaStar        0.09;
    beta0           0.0708;
    gamma           0.52;
    Clim            0.875;
    sigmaDo         0.125;
    alphaK          0.6;
    alphaOmega      0.5;
}

No MRF models present

yPlus yPlus write:
    writing object yPlus
    patch top y+ : min = 0.236757800535, max = 0.543960798569, average = 0.25836541481


Time = 200s
Selecting solver incompressibleFluid
Selecting viscosity model constant
Selecting turbulence model type RAS
Selecting RAS turbulence model kOmega2006
RAS
{
    RASModel        kOmega2006;
    turbulence      on;
    printCoeffs     on;
    betaStar        0.09;
    beta0           0.0708;
    gamma           0.52;
    Clim            0.875;
    sigmaDo         0.125;
    alphaK          0.6;
    alphaOmega      0.5;
}

No MRF models present

yPlus yPlus write:
    writing object yPlus
    patch top y+ : min = 0.236757390506, max = 0.543960798531, average = 0.258386577379


Time = 300s
Selecting solver incompressibleFluid
Selecting viscosity model constant
Selecting turbulence model type RAS
Selecting RAS turbulence model kOmega2006
RAS
{
    RASModel        kOmega2006;
    turbulence      on;
    printCoeffs     on;
    betaStar        0.09;
    beta0           0.0708;
    gamma           0.52;
    Clim            0.875;
    sigmaDo         0.125;
    alphaK          0.6;
    alphaOmega      0.5;
}

No MRF models present

yPlus yPlus write:
    writing object yPlus
    patch top y+ : min = 0.236757388631, max = 0.543960798533, average = 0.258386574946


Time = 400s
Selecting solver incompressibleFluid
Selecting viscosity model constant
Selecting turbulence model type RAS
Selecting RAS turbulence model kOmega2006
RAS
{
    RASModel        kOmega2006;
    turbulence      on;
    printCoeffs     on;
    betaStar        0.09;
    beta0           0.0708;
    gamma           0.52;
    Clim            0.875;
    sigmaDo         0.125;
    alphaK          0.6;
    alphaOmega      0.5;
}

No MRF models present

yPlus yPlus write:
    writing object yPlus
    patch top y+ : min = 0.236757389029, max = 0.54396079853, average = 0.258386575047


Time = 500s
Selecting solver incompressibleFluid
Selecting viscosity model constant
Selecting turbulence model type RAS
Selecting RAS turbulence model kOmega2006
RAS
{
    RASModel        kOmega2006;
    turbulence      on;
    printCoeffs     on;
    betaStar        0.09;
    beta0           0.0708;
    gamma           0.52;
    Clim            0.875;
    sigmaDo         0.125;
    alphaK          0.6;
    alphaOmega      0.5;
}

No MRF models present

yPlus yPlus write:
    writing object yPlus
    patch top y+ : min = 0.23675738997, max = 0.543960798534, average = 0.258386576656


Time = 600s
Selecting solver incompressibleFluid
Selecting viscosity model constant
Selecting turbulence model type RAS
Selecting RAS turbulence model kOmega2006
RAS
{
    RASModel        kOmega2006;
    turbulence      on;
    printCoeffs     on;
    betaStar        0.09;
    beta0           0.0708;
    gamma           0.52;
    Clim            0.875;
    sigmaDo         0.125;
    alphaK          0.6;
    alphaOmega      0.5;
}

No MRF models present

yPlus yPlus write:
    writing object yPlus
    patch top y+ : min = 0.236757389119, max = 0.543960798532, average = 0.258386575859


Time = 700s
Selecting solver incompressibleFluid
Selecting viscosity model constant
Selecting turbulence model type RAS
Selecting RAS turbulence model kOmega2006
RAS
{
    RASModel        kOmega2006;
    turbulence      on;
    printCoeffs     on;
    betaStar        0.09;
    beta0           0.0708;
    gamma           0.52;
    Clim            0.875;
    sigmaDo         0.125;
    alphaK          0.6;
    alphaOmega      0.5;
}

No MRF models present

yPlus yPlus write:
    writing object yPlus
    patch top y+ : min = 0.236757389164, max = 0.543960798532, average = 0.258386575922


Time = 800s
Selecting solver incompressibleFluid
Selecting viscosity model constant
Selecting turbulence model type RAS
Selecting RAS turbulence model kOmega2006
RAS
{
    RASModel        kOmega2006;
    turbulence      on;
    printCoeffs     on;
    betaStar        0.09;
    beta0           0.0708;
    gamma           0.52;
    Clim            0.875;
    sigmaDo         0.125;
    alphaK          0.6;
    alphaOmega      0.5;
}

No MRF models present

yPlus yPlus write:
    writing object yPlus
    patch top y+ : min = 0.236757389168, max = 0.543960798532, average = 0.258386575927


Time = 900s
Selecting solver incompressibleFluid
Selecting viscosity model constant
Selecting turbulence model type RAS
Selecting RAS turbulence model kOmega2006
RAS
{
    RASModel        kOmega2006;
    turbulence      on;
    printCoeffs     on;
    betaStar        0.09;
    beta0           0.0708;
    gamma           0.52;
    Clim            0.875;
    sigmaDo         0.125;
    alphaK          0.6;
    alphaOmega      0.5;
}

No MRF models present

yPlus yPlus write:
    writing object yPlus
    patch top y+ : min = 0.236757389163, max = 0.543960798532, average = 0.258386575923


Time = 1000s
Selecting solver incompressibleFluid
Selecting viscosity model constant
Selecting turbulence model type RAS
Selecting RAS turbulence model kOmega2006
RAS
{
    RASModel        kOmega2006;
    turbulence      on;
    printCoeffs     on;
    betaStar        0.09;
    beta0           0.0708;
    gamma           0.52;
    Clim            0.875;
    sigmaDo         0.125;
    alphaK          0.6;
    alphaOmega      0.5;
}

No MRF models present

yPlus yPlus write:
    writing object yPlus
    patch top y+ : min = 0.236757389164, max = 0.543960798532, average = 0.258386575923


End

/*---------------------------------------------------------------------------*\
  =========                 |
  \\      /  F ield         | OpenFOAM: The Open Source CFD Toolbox
   \\    /   O peration     | Website:  https://openfoam.org
    \\  /    A nd           | Version:  12
     \\/     M anipulation  |
\*---------------------------------------------------------------------------*/
Build  : 12-86e126a7bc4d
Exec   : foamPostProcess -func sampleDict0 -latestTime -noZero
Date   : Jun 22 2026
Time   : 09:32:27
Host   : "NotebookdoDan"
PID    : 29793
I/O    : uncollated
Case   : /home/danilom/OpenFOAM/danilom-12/run/GT1/turbulent_wedge_Viscoso
nProcs : 1
sigFpe : Enabling floating point exception trapping (FOAM_SIGFPE).
fileModificationChecking : Monitoring run-time modified files using timeStampMaster (fileModificationSkew 10)
allowSystemOperations : Allowing user-supplied system call operations

// * * * * * * * * * * * * * * * * * * * * * * * * * * * * * * * * * * * * * //
Create time

Create mesh for time = 1000

Reading set description:
    profile0

Time = 1000s

Reading fields:
    volScalarFields: p
    volVectorFields: wallShearStress U

Executing functionObjects

End

