/*---------------------------------------------------------------------------*\
  =========                 |
  \\      /  F ield         | OpenFOAM: The Open Source CFD Toolbox
   \\    /   O peration     | Website:  https://openfoam.org
    \\  /    A nd           | Version:  12
     \\/     M anipulation  |
\*---------------------------------------------------------------------------*/
Build  : 12-86e126a7bc4d
Exec   : foamRun
Date   : Jun 15 2026
Time   : 11:35:45
Host   : "NotebookdoDan"
PID    : 60166
I/O    : uncollated
Case   : /home/danilom/OpenFOAM/danilom-12/run/GT2/SRS/DES_KO_LRN
nProcs : 1
sigFpe : Enabling floating point exception trapping (FOAM_SIGFPE).
fileModificationChecking : Monitoring run-time modified files using timeStampMaster (fileModificationSkew 10)
allowSystemOperations : Allowing user-supplied system call operations

// * * * * * * * * * * * * * * * * * * * * * * * * * * * * * * * * * * * * * //
Create time

Create mesh for time = 0

Selecting solver incompressibleFluid
Selecting viscosity model Newtonian
Selecting turbulence model type LES
Selecting LES turbulence model kOmegaSSTDES
Selecting LES delta type cubeRootVol
--> FOAM Warning : 
    From function void Foam::LESModels::cubeRootVolDelta::calcDelta()
    in file LES/LESdeltas/cubeRootVolDelta/cubeRootVolDelta.C at line 55
    Case is 2D, LES is not strictly applicable

LES
{
    LESModel        kOmegaSSTDES;
    turbulence      on;
    printCoeffs     on;
    delta           cubeRootVol;
    cubeRootVolCoeffs
    {
        deltaCoeff      1;
    }
    Ck              0.094;
    Ce              1.048;
    alphaK1         0.85;
    alphaK2         1;
    alphaOmega1     0.5;
    alphaOmega2     0.856;
    gamma1          0.55555556;
    gamma2          0.44;
    beta1           0.075;
    beta2           0.0828;
    betaStar        0.09;
    a1              0.31;
    b1              1;
    c1              10;
    F3              false;
    CDES            0.61;
}

No MRF models present

Selecting patchDistMethod meshWave
Courant Number mean: 0.0058285798 max: 0.024936694

PIMPLE: No convergence criteria found


PIMPLE: Operating solver in transient mode with 1 outer corrector
PIMPLE: Operating solver in PISO mode


    - selecting all cells
    - selected 13056 cell(s) with volume 2.33333


    - selecting all cells
    - selected 13056 cell(s) with volume 2.33333


    - selecting all cells
    - selected 13056 cell(s) with volume 2.33333


    - selecting all cells
    - selected 13056 cell(s) with volume 2.33333


    - selecting all cells
    - selected 13056 cell(s) with volume 2.33333


    - selecting all cells
    - selected 13056 cell(s) with volume 2.33333


wallShearStress wallShearStress1:
    processing all wall patches


Starting time loop



volFieldValue mindomain_scalar write:
    min() of p = 0 at location (-0.31329649 1.0023271e-06 0.5) in cell 0
    min() of k = 0.00015 at location (-0.31329649 1.0023271e-06 0.5) in cell 0
    min() of omega = 750 at location (-0.31329649 1.0023271e-06 0.5) in cell 0
    min() of nut = 2e-07 at location (-0.31329649 1.0023271e-06 0.5) in cell 0

volFieldValue mindomain_vector write:
    minMag() of U = 1 at location (-0.31329649 1.0023271e-06 0.5) in cell 0

volFieldValue maxdomain_scalar write:
    max() of p = 0 at location (-0.31329649 1.0023271e-06 0.5) in cell 0
    max() of k = 0.00015 at location (-0.31329649 1.0023271e-06 0.5) in cell 0
    max() of omega = 750 at location (-0.31329649 1.0023271e-06 0.5) in cell 0
    max() of nut = 2e-07 at location (-0.31329649 1.0023271e-06 0.5) in cell 0

volFieldValue maxdomain_vector write:
    maxMag() of U = 1 at location (-0.31329649 1.0023271e-06 0.5) in cell 0

yPlus yplus_stats write:
    patch bottom y+ : min = 0.033619072, max = 0.033619072, average = 0.033619072

Courant Number mean: 0.0058285798 max: 0.024936694
deltaT = 0.0001199904
Time = 0.00011999s

DILUPBiCGStab:  Solving for Ux, Initial residual = 1, Final residual = 2.6655069e-10, No Iterations 2
DILUPBiCGStab:  Solving for Uy, Initial residual = 0.043113272, Final residual = 3.861365e-09, No Iterations 1
DICPCG:  Solving for p, Initial residual = 1, Final residual = 0.0093143048, No Iterations 98
DICPCG:  Solving for p, Initial residual = 5.4787582e-05, Final residual = 7.9721895e-07, No Iterations 22
time step continuity errors : sum local = 1.9897368e-14, global = 8.6523148e-16
DICPCG:  Solving for p, Initial residual = 0.010016157, Final residual = 9.8974896e-05, No Iterations 83
DICPCG:  Solving for p, Initial residual = 8.8501823e-05, Final residual = 9.3610513e-07, No Iterations 33
time step continuity errors : sum local = 2.3747804e-14, global = -1.3572216e-15, cumulative = -1.3572216e-15
DILUPBiCGStab:  Solving for omega, Initial residual = 0.00078869329, Final residual = 9.9985086e-19, No Iterations 3
DILUPBiCGStab:  Solving for k, Initial residual = 1, Final residual = 9.2396669e-18, No Iterations 3
ExecutionTime = 0.242639 s  ClockTime = 0 s



volFieldValue mindomain_scalar write:
    min() of p = 0.00050879909 at location (1.9785208 0.94257453 0.5) in cell 13055
    min() of k = 0.00012024631 at location (1.9785208 2.0249401e-05 0.5) in cell 1223
    min() of omega = 745.00889 at location (1.9785208 0.94257453 0.5) in cell 13055
    min() of nut = 8.4635713e-11 at location (0.0020059438 1.0023271e-06 0.5) in cell 24

volFieldValue mindomain_vector write:
    minMag() of U = 0.4226608 at location (1.9785208 1.0023271e-06 0.5) in cell 135

volFieldValue maxdomain_scalar write:
    max() of p = 0.090052006 at location (-0.0020050773 1.0023271e-06 0.5) in cell 23
    max() of k = 0.0013480519 at location (1.0334345 1.0023271e-06 0.5) in cell 113
    max() of omega = 15925793 at location (1.9785208 1.0023271e-06 0.5) in cell 135
    max() of nut = 1.9997612e-07 at location (-0.31329649 9.4750924e-06 0.5) in cell 544

volFieldValue maxdomain_vector write:
    maxMag() of U = 1.0001833 at location (0.0060340464 0.00016269684 0.5) in cell 3289

yPlus yplus_stats write:
    patch bottom y+ : min = 0.1007784, max = 0.10078442, average = 0.10078424

Courant Number mean: 0.0069937488 max: 0.045951718
deltaT = 0.0001439712
Time = 0.000263962s

DILUPBiCGStab:  Solving for Ux, Initial residual = 0.00041340628, Final residual = 7.0671052e-11, No Iterations 1
DILUPBiCGStab:  Solving for Uy, Initial residual = 0.19901965, Final residual = 7.5695976e-11, No Iterations 1
DICPCG:  Solving for p, Initial residual = 0.024798159, Final residual = 0.00021785086, No Iterations 85
DICPCG:  Solving for p, Initial residual = 0.00041754761, Final residual = 3.8987339e-06, No Iterations 31
time step continuity errors : sum local = 4.4831991e-14, global = 1.4780049e-15
DICPCG:  Solving for p, Initial residual = 0.027912541, Final residual = 0.00025587011, No Iterations 71
DICPCG:  Solving for p, Initial residual = 0.00027168559, Final residual = 9.6491611e-07, No Iterations 62
time step continuity errors : sum local = 1.1681011e-14, global = 2.2303126e-15, cumulative = 8.7309102e-16
DILUPBiCGStab:  Solving for omega, Initial residual = 0.0020360683, Final residual = 1.8610827e-21, No Iterations 3
DILUPBiCGStab:  Solving for k, Initial residual = 0.022412162, Final residual = 4.6369043e-20, No Iterations 3
ExecutionTime = 0.357677 s  ClockTime = 1 s



volFieldValue mindomain_scalar write:
    min() of p = 0.00033295707 at location (1.9785208 0.94257453 0.5) in cell 13055
    min() of k = 7.9398567e-05 at location (1.9355623 2.0249401e-05 0.5) in cell 1222
    min() of omega = 739.28759 at location (1.9785208 0.94257453 0.5) in cell 13055
    min() of nut = 9.7730203e-12 at location (0.0020059438 1.0023271e-06 0.5) in cell 24

volFieldValue mindomain_vector write:
    minMag() of U = 0.1751669 at location (0.0060340464 1.0023271e-06 0.5) in cell 25

volFieldValue maxdomain_scalar write:
    max() of p = 0.057374935 at location (-0.0020050773 1.0023271e-06 0.5) in cell 23
    max() of k = 0.00031050989 at location (0.0060340464 5.0865428e-06 0.5) in cell 297
    max() of omega = 15925793 at location (1.9785208 1.0023271e-06 0.5) in cell 135
    max() of nut = 1.9994835e-07 at location (-0.31329649 9.4750924e-06 0.5) in cell 544

volFieldValue maxdomain_vector write:
    maxMag() of U = 1.0003596 at location (0.0060340464 0.00018390838 0.5) in cell 3425

yPlus yplus_stats write:
    patch bottom y+ : min = 0.034245619, max = 0.034279496, average = 0.034278849

Courant Number mean: 0.0083915018 max: 0.067734441
deltaT = 0.00017275549
Time = 0.000436717s

DILUPBiCGStab:  Solving for Ux, Initial residual = 0.00013662078, Final residual = 6.0945812e-11, No Iterations 1
DILUPBiCGStab:  Solving for Uy, Initial residual = 0.084617101, Final residual = 1.6341907e-10, No Iterations 1
DICPCG:  Solving for p, Initial residual = 0.037400181, Final residual = 0.0003724485, No Iterations 83
DICPCG:  Solving for p, Initial residual = 0.00051053877, Final residual = 4.8136579e-06, No Iterations 38
time step continuity errors : sum local = 6.6882272e-14, global = 3.4084277e-15
DICPCG:  Solving for p, Initial residual = 0.023174777, Final residual = 0.00018845715, No Iterations 71
DICPCG:  Solving for p, Initial residual = 0.00019194406, Final residual = 9.3654163e-07, No Iterations 84
time step continuity errors : sum local = 1.3471353e-14, global = -2.1532773e-16, cumulative = 6.5776328e-16
DILUPBiCGStab:  Solving for omega, Initial residual = 0.00020461813, Final residual = 6.2501943e-21, No Iterations 3
DILUPBiCGStab:  Solving for k, Initial residual = 0.57824528, Final residual = 3.056697e-18, No Iterations 3
ExecutionTime = 0.470696 s  ClockTime = 1 s



volFieldValue mindomain_scalar write:
    min() of p = 0.00017530623 at location (1.9785208 0.94257453 0.5) in cell 13055
    min() of k = 1.477063e-05 at location (0.0020059438 1.0023271e-06 0.5) in cell 24
    min() of omega = 732.60161 at location (1.9785208 0.94257453 0.5) in cell 13055
    min() of nut = 9.2746591e-13 at location (0.0020059438 1.0023271e-06 0.5) in cell 24

volFieldValue mindomain_vector write:
    minMag() of U = 0.11174617 at location (0.0060340464 1.0023271e-06 0.5) in cell 25

volFieldValue maxdomain_scalar write:
    max() of p = 0.040341477 at location (-0.0020050773 1.0023271e-06 0.5) in cell 23
    max() of k = 0.00014871453 at location (-0.31329649 3.0219182e-06 0.5) in cell 136
    max() of omega = 15925793 at location (1.9785208 1.0023271e-06 0.5) in cell 135
    max() of nut = 1.999179e-07 at location (-0.31329649 9.4750924e-06 0.5) in cell 544

volFieldValue maxdomain_vector write:
    maxMag() of U = 1.0004897 at location (0.0060340464 0.00023491035 0.5) in cell 3697

yPlus yplus_stats write:
    patch bottom y+ : min = 0.010549688, max = 0.010574559, average = 0.010573968

Courant Number mean: 0.010069231 max: 0.090598134
deltaT = 0.00020729226
Time = 0.000644009s

DILUPBiCGStab:  Solving for Ux, Initial residual = 8.2044679e-05, Final residual = 6.7331551e-11, No Iterations 1
DILUPBiCGStab:  Solving for Uy, Initial residual = 0.042431836, Final residual = 3.9084406e-10, No Iterations 1
DICPCG:  Solving for p, Initial residual = 0.029177149, Final residual = 0.00028255947, No Iterations 78
DICPCG:  Solving for p, Initial residual = 0.00032800398, Final residual = 2.9886306e-06, No Iterations 39
time step continuity errors : sum local = 5.4123831e-14, global = 4.4279113e-15
DICPCG:  Solving for p, Initial residual = 0.019026344, Final residual = 0.00017746977, No Iterations 64
DICPCG:  Solving for p, Initial residual = 0.00017956602, Final residual = 7.8088083e-07, No Iterations 85
time step continuity errors : sum local = 1.4251083e-14, global = 2.5109949e-16, cumulative = 9.0886278e-16
DILUPBiCGStab:  Solving for omega, Initial residual = 0.00013818182, Final residual = 6.525546e-21, No Iterations 3
DILUPBiCGStab:  Solving for k, Initial residual = 0.10513923, Final residual = 1.3355309e-18, No Iterations 3
ExecutionTime = 0.586034 s  ClockTime = 1 s



volFieldValue mindomain_scalar write:
    min() of p = 0.00011687902 at location (1.9785208 0.94257453 0.5) in cell 13055
    min() of k = 1.4309416e-06 at location (1.9355623 1.0023271e-06 0.5) in cell 134
    min() of omega = 724.75496 at location (1.9785208 0.94257453 0.5) in cell 13055
    min() of nut = 8.9850571e-14 at location (1.9355623 1.0023271e-06 0.5) in cell 134

volFieldValue mindomain_vector write:
    minMag() of U = 0.089070812 at location (0.0060340464 1.0023271e-06 0.5) in cell 25

volFieldValue maxdomain_scalar write:
    max() of p = 0.033275406 at location (-0.0020050773 1.0023271e-06 0.5) in cell 23
    max() of k = 0.00014821539 at location (-0.31329649 3.0219182e-06 0.5) in cell 136
    max() of omega = 15925793 at location (1.9785208 1.0023271e-06 0.5) in cell 135
    max() of nut = 1.9988565e-07 at location (-0.31329649 9.4750924e-06 0.5) in cell 544

volFieldValue maxdomain_vector write:
    maxMag() of U = 1.0005837 at location (0.0060340464 0.00026546084 0.5) in cell 3833

yPlus yplus_stats write:
    patch bottom y+ : min = 0.003283606, max = 0.0032889433, average = 0.0032838115

Courant Number mean: 0.012082252 max: 0.1167076
deltaT = 0.00024871976
Time = 0.000892729s

DILUPBiCGStab:  Solving for Ux, Initial residual = 6.5005162e-05, Final residual = 8.1424783e-11, No Iterations 1
DILUPBiCGStab:  Solving for Uy, Initial residual = 0.028680581, Final residual = 6.542746e-10, No Iterations 1
DICPCG:  Solving for p, Initial residual = 0.027718182, Final residual = 0.00026085355, No Iterations 76
DICPCG:  Solving for p, Initial residual = 0.00029856425, Final residual = 2.560595e-06, No Iterations 39
time step continuity errors : sum local = 5.7688811e-14, global = 6.0013997e-15
DICPCG:  Solving for p, Initial residual = 0.019680502, Final residual = 0.00018507237, No Iterations 62
DICPCG:  Solving for p, Initial residual = 0.00018817295, Final residual = 9.8777735e-07, No Iterations 84
time step continuity errors : sum local = 2.2130158e-14, global = 7.9069248e-16, cumulative = 1.6995553e-15
DILUPBiCGStab:  Solving for omega, Initial residual = 7.418299e-05, Final residual = 1.2578822e-20, No Iterations 3
DILUPBiCGStab:  Solving for k, Initial residual = 0.091859194, Final residual = 2.7284873e-18, No Iterations 3
ExecutionTime = 0.706442 s  ClockTime = 1 s



volFieldValue mindomain_scalar write:
    min() of p = 0.00010928686 at location (1.9785208 0.94257453 0.5) in cell 13055
    min() of k = 1.5927442e-07 at location (0.0060340464 1.0023271e-06 0.5) in cell 25
    min() of omega = 715.55709 at location (1.9785208 0.94257453 0.5) in cell 13055
    min() of nut = 1.0001036e-14 at location (0.0060340464 1.0023271e-06 0.5) in cell 25

volFieldValue mindomain_vector write:
    minMag() of U = 0.075787326 at location (0.0060340464 1.0023271e-06 0.5) in cell 25

volFieldValue maxdomain_scalar write:
    max() of p = 0.028435118 at location (-0.0020050773 1.0023271e-06 0.5) in cell 23
    max() of k = 0.00014767882 at location (-0.31329649 3.0219182e-06 0.5) in cell 136
    max() of omega = 15925793 at location (1.9785208 1.0023271e-06 0.5) in cell 135
    max() of nut = 1.9985199e-07 at location (-0.31329649 9.4750924e-06 0.5) in cell 544

volFieldValue maxdomain_vector write:
    maxMag() of U = 1.0006534 at location (0.0060340464 0.00033894396 0.5) in cell 4105

yPlus yplus_stats write:
    patch bottom y+ : min = 0.0010955018, max = 0.0011456134, average = 0.0010962434

Courant Number mean: 0.01449691 max: 0.14787469
deltaT = 0.00029841914
Time = 0.00119115s

DILUPBiCGStab:  Solving for Ux, Initial residual = 5.6981643e-05, Final residual = 1.038599e-10, No Iterations 1
DILUPBiCGStab:  Solving for Uy, Initial residual = 0.021874837, Final residual = 9.7360121e-10, No Iterations 1
DICPCG:  Solving for p, Initial residual = 0.025285826, Final residual = 0.00024347784, No Iterations 76
DICPCG:  Solving for p, Initial residual = 0.00027872174, Final residual = 2.3526265e-06, No Iterations 39
time step continuity errors : sum local = 6.4904183e-14, global = 6.8398044e-15
DICPCG:  Solving for p, Initial residual = 0.022752325, Final residual = 0.00017790528, No Iterations 2
DICPCG:  Solving for p, Initial residual = 0.00017990349, Final residual = 7.5660717e-07, No Iterations 97
time step continuity errors : sum local = 2.0722308e-14, global = -4.4905729e-16, cumulative = 1.250498e-15
DILUPBiCGStab:  Solving for omega, Initial residual = 6.1371534e-05, Final residual = 2.8982092e-20, No Iterations 3
DILUPBiCGStab:  Solving for k, Initial residual = 0.096215313, Final residual = 6.6372406e-18, No Iterations 3
ExecutionTime = 0.817207 s  ClockTime = 1 s



volFieldValue mindomain_scalar write:
    min() of p = 9.7487115e-05 at location (1.9785208 0.94257453 0.5) in cell 13055
    min() of k = 2.7159413e-08 at location (0.0060340464 1.0023271e-06 0.5) in cell 25
    min() of omega = 704.81164 at location (1.9785208 0.94257453 0.5) in cell 13055
    min() of nut = 1.7053727e-15 at location (0.0060340464 1.0023271e-06 0.5) in cell 25

volFieldValue mindomain_vector write:
    minMag() of U = 0.066342402 at location (0.0060340464 1.0023271e-06 0.5) in cell 25

volFieldValue maxdomain_scalar write:
    max() of p = 0.024566231 at location (-0.0020050773 1.0023271e-06 0.5) in cell 23
    max() of k = 0.00014710457 at location (-0.31329649 3.0219182e-06 0.5) in cell 136
    max() of omega = 15925793 at location (1.9785208 1.0023271e-06 0.5) in cell 135
    max() of nut = 1.9981711e-07 at location (-0.31329649 9.4750924e-06 0.5) in cell 544

volFieldValue maxdomain_vector write:
    maxMag() of U = 1.0007045 at location (0.0060340464 0.00043270649 0.5) in cell 4377

yPlus yplus_stats write:
    patch bottom y+ : min = 0.00045237675, max = 0.00057089625, average = 0.00045415778

Courant Number mean: 0.017393707 max: 0.18484463
deltaT = 0.000357996
Time = 0.00154914s

DILUPBiCGStab:  Solving for Ux, Initial residual = 5.244326e-05, Final residual = 1.3677586e-10, No Iterations 1
DILUPBiCGStab:  Solving for Uy, Initial residual = 0.017626939, Final residual = 1.6228893e-09, No Iterations 1
DICPCG:  Solving for p, Initial residual = 0.031263161, Final residual = 0.00030944884, No Iterations 74
DICPCG:  Solving for p, Initial residual = 0.00035898598, Final residual = 3.5316339e-06, No Iterations 39
time step continuity errors : sum local = 1.1435635e-13, global = 1.3817342e-14
DICPCG:  Solving for p, Initial residual = 0.033682795, Final residual = 0.00016180359, No Iterations 2
DICPCG:  Solving for p, Initial residual = 0.000165981, Final residual = 8.5504613e-07, No Iterations 97
time step continuity errors : sum local = 2.6809534e-14, global = -6.0049033e-16, cumulative = 6.5000763e-16
DILUPBiCGStab:  Solving for omega, Initial residual = 5.1828596e-05, Final residual = 7.0196127e-20, No Iterations 3
DILUPBiCGStab:  Solving for k, Initial residual = 0.10610616, Final residual = 1.6925621e-17, No Iterations 3
ExecutionTime = 0.915351 s  ClockTime = 1 s



volFieldValue mindomain_scalar write:
    min() of p = 8.2117903e-05 at location (1.9785208 0.94257453 0.5) in cell 13055
    min() of k = 8.9705512e-09 at location (0.0060340464 1.0023271e-06 0.5) in cell 25
    min() of omega = 692.31742 at location (1.9785208 0.94257453 0.5) in cell 13055
    min() of nut = 5.6327188e-16 at location (0.0060340464 1.0023271e-06 0.5) in cell 25

volFieldValue mindomain_vector write:
    minMag() of U = 0.059135871 at location (0.0060340464 1.0023271e-06 0.5) in cell 25

volFieldValue maxdomain_scalar write:
    max() of p = 0.02136127 at location (-0.0020050773 1.0023271e-06 0.5) in cell 23
    max() of k = 0.00014649283 at location (-0.31329649 3.0219182e-06 0.5) in cell 136
    max() of omega = 15925793 at location (1.9785208 1.0023271e-06 0.5) in cell 135
    max() of nut = 1.9978112e-07 at location (-0.31329649 9.4750924e-06 0.5) in cell 544

volFieldValue maxdomain_vector write:
    maxMag() of U = 1.0007381 at location (0.0060340464 0.00070505852 0.5) in cell 4921

yPlus yplus_stats write:
    patch bottom y+ : min = 0.00025998582, max = 0.00043336454, average = 0.00026249556

Courant Number mean: 0.02086623 max: 0.2301241
deltaT = 0.00042944123
Time = 0.00197859s

DILUPBiCGStab:  Solving for Ux, Initial residual = 4.9838929e-05, Final residual = 1.8413523e-10, No Iterations 1
DILUPBiCGStab:  Solving for Uy, Initial residual = 0.014702627, Final residual = 2.7474424e-09, No Iterations 1
DICPCG:  Solving for p, Initial residual = 0.046065567, Final residual = 0.00041000636, No Iterations 72
DICPCG:  Solving for p, Initial residual = 0.0004800171, Final residual = 4.4948866e-06, No Iterations 41
time step continuity errors : sum local = 1.6485637e-13, global = 2.5731332e-14
DICPCG:  Solving for p, Initial residual = 0.032537532, Final residual = 0.00017284504, No Iterations 2
DICPCG:  Solving for p, Initial residual = 0.00017511024, Final residual = 9.3362666e-07, No Iterations 97
time step continuity errors : sum local = 3.3956202e-14, global = -7.5723166e-16, cumulative = -1.0722403e-16
DILUPBiCGStab:  Solving for omega, Initial residual = 5.0731211e-05, Final residual = 1.6438745e-19, No Iterations 3
DILUPBiCGStab:  Solving for k, Initial residual = 0.11998309, Final residual = 4.4095711e-17, No Iterations 3
ExecutionTime = 1.007268 s  ClockTime = 1 s



volFieldValue mindomain_scalar write:
    min() of p = 7.0206231e-05 at location (1.9785208 0.94257453 0.5) in cell 13055
    min() of k = 4.8090944e-09 at location (0.0060340464 1.0023271e-06 0.5) in cell 25
    min() of omega = 677.87102 at location (1.9785208 0.94257453 0.5) in cell 13055
    min() of nut = 3.0196892e-16 at location (0.0060340464 1.0023271e-06 0.5) in cell 25

volFieldValue mindomain_vector write:
    minMag() of U = 0.053397173 at location (0.0060340464 1.0023271e-06 0.5) in cell 25

volFieldValue maxdomain_scalar write:
    max() of p = 0.018625367 at location (-0.0020050773 1.0023271e-06 0.5) in cell 23
    max() of k = 0.00014584402 at location (-0.31329649 3.0219182e-06 0.5) in cell 136
    max() of omega = 15925793 at location (1.9785208 1.0023271e-06 0.5) in cell 135
    max() of nut = 1.9974411e-07 at location (-0.31329649 9.4750924e-06 0.5) in cell 544

volFieldValue maxdomain_vector write:
    maxMag() of U = 1.0007575 at location (0.0060340464 0.00079656552 0.5) in cell 5057

yPlus yplus_stats write:
    patch bottom y+ : min = 0.00019035827, max = 0.00039345923, average = 0.0001931923

Courant Number mean: 0.025030522 max: 0.28472815
deltaT = 0.00051524079
Time = 0.00249383s

DILUPBiCGStab:  Solving for Ux, Initial residual = 4.8520846e-05, Final residual = 2.5214163e-10, No Iterations 1
DILUPBiCGStab:  Solving for Uy, Initial residual = 0.012855151, Final residual = 2.9934364e-09, No Iterations 1
DICPCG:  Solving for p, Initial residual = 0.036666879, Final residual = 0.00031915624, No Iterations 74
DICPCG:  Solving for p, Initial residual = 0.00036733859, Final residual = 3.2655702e-06, No Iterations 40
time step continuity errors : sum local = 1.4313678e-13, global = 2.0287452e-14
DICPCG:  Solving for p, Initial residual = 0.023910837, Final residual = 0.00020132335, No Iterations 2
DICPCG:  Solving for p, Initial residual = 0.00020329849, Final residual = 9.1377006e-07, No Iterations 97
time step continuity errors : sum local = 3.9866791e-14, global = -8.7273823e-16, cumulative = -9.7996226e-16
DILUPBiCGStab:  Solving for omega, Initial residual = 5.0858342e-05, Final residual = 3.4521832e-19, No Iterations 3
DILUPBiCGStab:  Solving for k, Initial residual = 0.13790804, Final residual = 1.1888355e-16, No Iterations 3
ExecutionTime = 1.106931 s  ClockTime = 1 s



volFieldValue mindomain_scalar write:
    min() of p = 6.1141249e-05 at location (1.9785208 0.94257453 0.5) in cell 13055
    min() of k = 3.1870712e-09 at location (0.0060340464 1.0023271e-06 0.5) in cell 25
    min() of omega = 661.2726 at location (1.9785208 0.94257453 0.5) in cell 13055
    min() of nut = 2.001201e-16 at location (0.0060340464 1.0023271e-06 0.5) in cell 25

volFieldValue mindomain_vector write:
    minMag() of U = 0.048684217 at location (0.0060340464 1.0023271e-06 0.5) in cell 25

volFieldValue maxdomain_scalar write:
    max() of p = 0.016242599 at location (-0.0020050773 1.0023271e-06 0.5) in cell 23
    max() of k = 0.00014515868 at location (-0.31329649 3.0219182e-06 0.5) in cell 136
    max() of omega = 15925793 at location (1.9785208 1.0023271e-06 0.5) in cell 135
    max() of nut = 1.9970614e-07 at location (-0.31329649 9.4750924e-06 0.5) in cell 544

volFieldValue maxdomain_vector write:
    maxMag() of U = 1.0007638 at location (0.0060340464 0.0011486725 0.5) in cell 5465

yPlus yplus_stats write:
    patch bottom y+ : min = 0.00015496584, max = 0.00037495081, average = 0.00015794329

Courant Number mean: 0.030031481 max: 0.350488
deltaT = 0.00061803356
Time = 0.00311186s

DILUPBiCGStab:  Solving for Ux, Initial residual = 4.809615e-05, Final residual = 3.5062585e-10, No Iterations 1
DILUPBiCGStab:  Solving for Uy, Initial residual = 0.011626665, Final residual = 3.1694578e-09, No Iterations 1
DICPCG:  Solving for p, Initial residual = 0.029525457, Final residual = 0.00028449171, No Iterations 75
DICPCG:  Solving for p, Initial residual = 0.00032430909, Final residual = 3.0142175e-06, No Iterations 39
time step continuity errors : sum local = 1.620494e-13, global = 1.8870011e-14
DICPCG:  Solving for p, Initial residual = 0.020300879, Final residual = 0.0001930884, No Iterations 62
DICPCG:  Solving for p, Initial residual = 0.00019679365, Final residual = 9.1973074e-07, No Iterations 83
time step continuity errors : sum local = 4.8884925e-14, global = 1.9720337e-15, cumulative = 9.9207144e-16
DILUPBiCGStab:  Solving for omega, Initial residual = 5.4570248e-05, Final residual = 7.7117093e-19, No Iterations 3
DILUPBiCGStab:  Solving for k, Initial residual = 0.16052267, Final residual = 3.2799235e-16, No Iterations 3
ExecutionTime = 1.217345 s  ClockTime = 1 s



volFieldValue mindomain_scalar write:
    min() of p = 5.3449151e-05 at location (1.9785208 0.94257453 0.5) in cell 13055
    min() of k = 2.3843194e-09 at location (0.0060340464 1.0023271e-06 0.5) in cell 25
    min() of omega = 642.34884 at location (1.9785208 0.94257453 0.5) in cell 13055
    min() of nut = 1.4971433e-16 at location (0.0060340464 1.0023271e-06 0.5) in cell 25

volFieldValue mindomain_vector write:
    minMag() of U = 0.044722877 at location (0.0060340464 1.0023271e-06 0.5) in cell 25

volFieldValue maxdomain_scalar write:
    max() of p = 0.014192414 at location (-0.0020050773 1.0023271e-06 0.5) in cell 23
    max() of k = 0.0001444376 at location (-0.31329649 3.0219182e-06 0.5) in cell 136
    max() of omega = 15925793 at location (1.9785208 1.0023271e-06 0.5) in cell 135
    max() of nut = 1.9966728e-07 at location (-0.31329649 9.4750924e-06 0.5) in cell 544

volFieldValue maxdomain_vector write:
    maxMag() of U = 1.0007764 at location (0.0060340464 0.0016563743 0.5) in cell 5873

yPlus yplus_stats write:
    patch bottom y+ : min = 0.00013403626, max = 0.00036415004, average = 0.00013709135

Courant Number mean: 0.036022922 max: 0.42978583
deltaT = 0.00074118077
Time = 0.00385304s

DILUPBiCGStab:  Solving for Ux, Initial residual = 4.8358912e-05, Final residual = 4.9146657e-10, No Iterations 1
DILUPBiCGStab:  Solving for Uy, Initial residual = 0.010744216, Final residual = 4.4785558e-09, No Iterations 1
DICPCG:  Solving for p, Initial residual = 0.022655395, Final residual = 0.00021404902, No Iterations 78
DICPCG:  Solving for p, Initial residual = 0.00024204986, Final residual = 2.007676e-06, No Iterations 39
time step continuity errors : sum local = 1.3517351e-13, global = 1.1930671e-14
DICPCG:  Solving for p, Initial residual = 0.016850504, Final residual = 0.00015913526, No Iterations 63
DICPCG:  Solving for p, Initial residual = 0.00016178207, Final residual = 9.5674297e-07, No Iterations 83
time step continuity errors : sum local = 6.3919751e-14, global = 1.6972538e-15, cumulative = 2.6893252e-15
DILUPBiCGStab:  Solving for omega, Initial residual = 5.7850036e-05, Final residual = 1.5552958e-18, No Iterations 3
DILUPBiCGStab:  Solving for k, Initial residual = 0.18914466, Final residual = 9.0709173e-16, No Iterations 3
ExecutionTime = 1.328661 s  ClockTime = 1 s



volFieldValue mindomain_scalar write:
    min() of p = 4.6801467e-05 at location (1.9785208 0.94257453 0.5) in cell 13055
    min() of k = 1.919833e-09 at location (0.0060340464 1.0023271e-06 0.5) in cell 25
    min() of omega = 620.96301 at location (1.9785208 0.94257453 0.5) in cell 13055
    min() of nut = 1.2054866e-16 at location (0.0060340464 1.0023271e-06 0.5) in cell 25

volFieldValue mindomain_vector write:
    minMag() of U = 0.041334316 at location (0.0060340464 1.0023271e-06 0.5) in cell 25

volFieldValue maxdomain_scalar write:
    max() of p = 0.012435862 at location (-0.0020050773 1.0023271e-06 0.5) in cell 23
    max() of k = 0.0001436816 at location (-0.31329649 3.0219182e-06 0.5) in cell 136
    max() of omega = 15925793 at location (1.9785208 1.0023271e-06 0.5) in cell 135
    max() of nut = 1.9962733e-07 at location (-0.31329649 9.4750924e-06 0.5) in cell 544

volFieldValue maxdomain_vector write:
    maxMag() of U = 1.0009747 at location (0.0020059438 0.00016269684 0.5) in cell 3288

yPlus yplus_stats write:
    patch bottom y+ : min = 0.00012027402, max = 0.00035642701, average = 0.00012336566

Courant Number mean: 0.043200761 max: 0.52671189
deltaT = 0.00088941693
Time = 0.00474246s

DILUPBiCGStab:  Solving for Ux, Initial residual = 4.9222118e-05, Final residual = 6.9609698e-10, No Iterations 1
DILUPBiCGStab:  Solving for Uy, Initial residual = 0.010075144, Final residual = 6.792307e-09, No Iterations 1
DICPCG:  Solving for p, Initial residual = 0.018543545, Final residual = 0.00017127293, No Iterations 79
DICPCG:  Solving for p, Initial residual = 0.00019251739, Final residual = 1.9163713e-06, No Iterations 38
time step continuity errors : sum local = 1.6372584e-13, global = 1.101888e-14
DICPCG:  Solving for p, Initial residual = 0.016173533, Final residual = 0.00015139057, No Iterations 63
DICPCG:  Solving for p, Initial residual = 0.00015392958, Final residual = 9.1081679e-07, No Iterations 83
time step continuity errors : sum local = 7.7105481e-14, global = 2.1385962e-15, cumulative = 4.8279214e-15
DILUPBiCGStab:  Solving for omega, Initial residual = 6.3034492e-05, Final residual = 3.3269559e-18, No Iterations 3
DILUPBiCGStab:  Solving for k, Initial residual = 0.2262283, Final residual = 2.5227838e-15, No Iterations 3
ExecutionTime = 1.437619 s  ClockTime = 2 s



volFieldValue mindomain_scalar write:
    min() of p = 4.1092053e-05 at location (1.9785208 0.94257453 0.5) in cell 13055
    min() of k = 1.6357806e-09 at location (0.0060340464 1.0023271e-06 0.5) in cell 25
    min() of omega = 597.01506 at location (1.9785208 0.94257453 0.5) in cell 13055
    min() of nut = 1.0271266e-16 at location (0.0060340464 1.0023271e-06 0.5) in cell 25

volFieldValue mindomain_vector write:
    minMag() of U = 0.038395183 at location (0.0060340464 1.0023271e-06 0.5) in cell 25

volFieldValue maxdomain_scalar write:
    max() of p = 0.010928739 at location (-0.0020050773 1.0023271e-06 0.5) in cell 23
    max() of k = 0.00014289158 at location (-0.31329649 3.0219182e-06 0.5) in cell 136
    max() of omega = 15925793 at location (1.9785208 1.0023271e-06 0.5) in cell 135
    max() of nut = 1.9958623e-07 at location (-0.31329649 9.4750924e-06 0.5) in cell 544

volFieldValue maxdomain_vector write:
    maxMag() of U = 1.0012261 at location (0.0020059438 0.00018390838 0.5) in cell 3424

yPlus yplus_stats write:
    patch bottom y+ : min = 0.00011102036, max = 0.00035044861, average = 0.00011411887

Courant Number mean: 0.051840961 max: 0.64394612
deltaT = 0.0010667283
Time = 0.00580919s

DILUPBiCGStab:  Solving for Ux, Initial residual = 5.0558298e-05, Final residual = 9.8883008e-10, No Iterations 1
DILUPBiCGStab:  Solving for Uy, Initial residual = 0.0095391349, Final residual = 2.6610636e-10, No Iterations 2
DICPCG:  Solving for p, Initial residual = 0.01833946, Final residual = 0.00017998937, No Iterations 79
DICPCG:  Solving for p, Initial residual = 0.0002012657, Final residual = 1.9042193e-06, No Iterations 38
time step continuity errors : sum local = 2.0723058e-13, global = 1.4171609e-14
DICPCG:  Solving for p, Initial residual = 0.020899013, Final residual = 0.00019887743, No Iterations 3
DICPCG:  Solving for p, Initial residual = 0.00020093975, Final residual = 8.0520211e-07, No Iterations 96
time step continuity errors : sum local = 8.6866043e-14, global = -1.3609928e-15, cumulative = 3.4669286e-15
DILUPBiCGStab:  Solving for omega, Initial residual = 6.6935022e-05, Final residual = 6.6513525e-18, No Iterations 3
DILUPBiCGStab:  Solving for k, Initial residual = 0.27525481, Final residual = 7.0969656e-15, No Iterations 3
ExecutionTime = 1.539781 s  ClockTime = 2 s



volFieldValue mindomain_scalar write:
    min() of p = 3.6199107e-05 at location (1.9785208 0.94257453 0.5) in cell 13055
    min() of k = 1.4482337e-09 at location (0.0060340464 1.0023271e-06 0.5) in cell 25
    min() of omega = 570.50531 at location (1.9785208 0.94257453 0.5) in cell 13055
    min() of nut = 9.0936362e-17 at location (0.0060340464 1.0023271e-06 0.5) in cell 25

volFieldValue mindomain_vector write:
    minMag() of U = 0.035818085 at location (0.0060340464 1.0023271e-06 0.5) in cell 25

volFieldValue maxdomain_scalar write:
    max() of p = 0.0096194254 at location (-0.0020050773 1.0023271e-06 0.5) in cell 23
    max() of k = 0.00014207091 at location (-0.31329649 1.0023271e-06 0.5) in cell 0
    max() of omega = 15925793 at location (1.9785208 1.0023271e-06 0.5) in cell 135
    max() of nut = 1.9954416e-07 at location (-0.31329649 9.4750924e-06 0.5) in cell 544

volFieldValue maxdomain_vector write:
    maxMag() of U = 1.0014349 at location (0.0020059438 0.00020786057 0.5) in cell 3560

yPlus yplus_stats write:
    patch bottom y+ : min = 0.00010446226, max = 0.00034534677, average = 0.00010753822

Courant Number mean: 0.062175873 max: 0.78488502
deltaT = 0.0012795249
Time = 0.00708871s

DILUPBiCGStab:  Solving for Ux, Initial residual = 5.2368415e-05, Final residual = 1.4118697e-09, No Iterations 1
DILUPBiCGStab:  Solving for Uy, Initial residual = 0.0091411771, Final residual = 4.712691e-10, No Iterations 2
DICPCG:  Solving for p, Initial residual = 0.018423957, Final residual = 0.00017573228, No Iterations 79
DICPCG:  Solving for p, Initial residual = 0.00019617508, Final residual = 1.7720519e-06, No Iterations 38
time step continuity errors : sum local = 2.4360609e-13, global = 1.6341162e-14
DICPCG:  Solving for p, Initial residual = 0.021589988, Final residual = 0.0001813666, No Iterations 3
DICPCG:  Solving for p, Initial residual = 0.00018192846, Final residual = 9.7196211e-07, No Iterations 95
time step continuity errors : sum local = 1.3428839e-13, global = -2.4261579e-15, cumulative = 1.0407707e-15
DILUPBiCGStab:  Solving for omega, Initial residual = 7.1619071e-05, Final residual = 1.3599254e-17, No Iterations 3
DILUPBiCGStab:  Solving for k, Initial residual = 0.34334662, Final residual = 2.0323895e-14, No Iterations 3
ExecutionTime = 1.639771 s  ClockTime = 2 s



volFieldValue mindomain_scalar write:
    min() of p = 3.1956796e-05 at location (1.9785208 0.94257453 0.5) in cell 13055
    min() of k = 1.3201168e-09 at location (0.0060340464 1.0023271e-06 0.5) in cell 25
    min() of omega = 541.51348 at location (1.9785208 0.94257453 0.5) in cell 13055
    min() of nut = 8.2891749e-17 at location (0.0060340464 1.0023271e-06 0.5) in cell 25

volFieldValue mindomain_vector write:
    minMag() of U = 0.033538332 at location (0.0060340464 1.0023271e-06 0.5) in cell 25

volFieldValue maxdomain_scalar write:
    max() of p = 0.0085500423 at location (-0.0020050773 1.0023271e-06 0.5) in cell 23
    max() of k = 0.00014122001 at location (-0.31329649 1.0023271e-06 0.5) in cell 0
    max() of omega = 15925793 at location (1.9785208 1.0023271e-06 0.5) in cell 135
    max() of nut = 1.9950121e-07 at location (-0.31329649 9.4750924e-06 0.5) in cell 544

volFieldValue maxdomain_vector write:
    maxMag() of U = 1.0016048 at location (0.0020059438 0.00020786057 0.5) in cell 3560

yPlus yplus_stats write:
    patch bottom y+ : min = 9.9734698e-05, max = 0.00034078525, average = 0.00010275635

Courant Number mean: 0.074579114 max: 0.95476478
deltaT = 0.0015346388
Time = 0.00862335s

DILUPBiCGStab:  Solving for Ux, Initial residual = 5.4621182e-05, Final residual = 2.0171821e-09, No Iterations 1
DILUPBiCGStab:  Solving for Uy, Initial residual = 0.0089042522, Final residual = 6.5142303e-10, No Iterations 2
DICPCG:  Solving for p, Initial residual = 0.015211575, Final residual = 0.00015186792, No Iterations 80
DICPCG:  Solving for p, Initial residual = 0.00016895255, Final residual = 1.6521078e-06, No Iterations 37
time step continuity errors : sum local = 2.9133173e-13, global = 1.5875064e-14
DICPCG:  Solving for p, Initial residual = 0.013669928, Final residual = 0.00013418939, No Iterations 62
DICPCG:  Solving for p, Initial residual = 0.00013517571, Final residual = 9.0672362e-07, No Iterations 80
time step continuity errors : sum local = 1.6094237e-13, global = 3.5453095e-15, cumulative = 4.5860802e-15
DILUPBiCGStab:  Solving for omega, Initial residual = 7.4479303e-05, Final residual = 2.8072297e-17, No Iterations 3
DILUPBiCGStab:  Solving for k, Initial residual = 0.44501788, Final residual = 5.9776249e-14, No Iterations 3
ExecutionTime = 1.78657 s  ClockTime = 2 s



volFieldValue mindomain_scalar write:
    min() of p = -0.0001256209 at location (0.0060340464 1.0023271e-06 0.5) in cell 25
    min() of k = 1.2278774e-09 at location (0.0060340464 1.0023271e-06 0.5) in cell 25
    min() of omega = 510.23407 at location (1.9785208 0.94257453 0.5) in cell 13055
    min() of nut = 7.7099921e-17 at location (0.0060340464 1.0023271e-06 0.5) in cell 25

volFieldValue mindomain_vector write:
    minMag() of U = 0.031507216 at location (0.0060340464 1.0023271e-06 0.5) in cell 25

volFieldValue maxdomain_scalar write:
    max() of p = 0.008050525 at location (-0.0020050773 1.0023271e-06 0.5) in cell 23
    max() of k = 0.00014033914 at location (-0.31329649 1.0023271e-06 0.5) in cell 0
    max() of omega = 15925793 at location (1.9785208 1.0023271e-06 0.5) in cell 135
    max() of nut = 1.9945746e-07 at location (-0.31329649 9.4750924e-06 0.5) in cell 544

volFieldValue maxdomain_vector write:
    maxMag() of U = 1.0017314 at location (0.0020059438 0.00023491035 0.5) in cell 3696

yPlus yplus_stats write:
    patch bottom y+ : min = 9.6187268e-05, max = 0.00033662408, average = 9.9112592e-05

Courant Number mean: 0.089448923 max: 1.1592293
deltaT = 0.0018392888
Time = 0.0104626s

DILUPBiCGStab:  Solving for Ux, Initial residual = 5.7282747e-05, Final residual = 2.8843827e-09, No Iterations 1
DILUPBiCGStab:  Solving for Uy, Initial residual = 0.0088616606, Final residual = 8.7131784e-10, No Iterations 2
DICPCG:  Solving for p, Initial residual = 0.016616756, Final residual = 0.00014803647, No Iterations 80
DICPCG:  Solving for p, Initial residual = 0.00016246243, Final residual = 1.4748286e-06, No Iterations 37
time step continuity errors : sum local = 3.4397241e-13, global = 1.8455658e-14
DICPCG:  Solving for p, Initial residual = 0.011449637, Final residual = 0.00010181294, No Iterations 64
DICPCG:  Solving for p, Initial residual = 0.00010209347, Final residual = 9.8267092e-07, No Iterations 80
time step continuity errors : sum local = 2.3209188e-13, global = 7.2165255e-15, cumulative = 1.1802606e-14
DILUPBiCGStab:  Solving for omega, Initial residual = 7.6997919e-05, Final residual = 5.8869622e-17, No Iterations 3
DILUPBiCGStab:  Solving for k, Initial residual = 0.61647236, Final residual = 1.8485232e-13, No Iterations 3
ExecutionTime = 1.891153 s  ClockTime = 2 s



volFieldValue mindomain_scalar write:
    min() of p = -0.00087832731 at location (0.0060340464 1.0023271e-06 0.5) in cell 25
    min() of k = 1.1599264e-09 at location (0.0060340464 1.0023271e-06 0.5) in cell 25
    min() of omega = 477 at location (1.9785208 0.94257453 0.5) in cell 13055
    min() of nut = 7.2833195e-17 at location (0.0060340464 1.0023271e-06 0.5) in cell 25

volFieldValue mindomain_vector write:
    minMag() of U = 0.029686904 at location (0.0060340464 1.0023271e-06 0.5) in cell 25

volFieldValue maxdomain_scalar write:
    max() of p = 0.0078594117 at location (-0.0020050773 1.0023271e-06 0.5) in cell 23
    max() of k = 0.00013942999 at location (-0.31329649 1.0023271e-06 0.5) in cell 0
    max() of omega = 15925793 at location (1.9785208 1.0023271e-06 0.5) in cell 135
    max() of nut = 1.9941297e-07 at location (-0.31329649 9.4750924e-06 0.5) in cell 544

volFieldValue maxdomain_vector write:
    maxMag() of U = 1.0018371 at location (0.0020059438 0.00023491035 0.5) in cell 3696

yPlus yplus_stats write:
    patch bottom y+ : min = 9.3487878e-05, max = 0.00033291371, average = 9.6259916e-05

Courant Number mean: 0.10720606 max: 1.4057729
deltaT = 0.0022038694
Time = 0.0126665s

DILUPBiCGStab:  Solving for Ux, Initial residual = 6.0389465e-05, Final residual = 4.1143521e-09, No Iterations 1
DILUPBiCGStab:  Solving for Uy, Initial residual = 0.0088517539, Final residual = 1.6490747e-09, No Iterations 2
DICPCG:  Solving for p, Initial residual = 0.014044059, Final residual = 0.00012941895, No Iterations 81
DICPCG:  Solving for p, Initial residual = 0.00014087316, Final residual = 1.3817959e-06, No Iterations 36
time step continuity errors : sum local = 4.3082074e-13, global = 1.9275393e-14
DICPCG:  Solving for p, Initial residual = 0.0093575807, Final residual = 9.1391413e-05, No Iterations 64
DICPCG:  Solving for p, Initial residual = 9.1611235e-05, Final residual = 9.4751807e-07, No Iterations 78
time step continuity errors : sum local = 2.9896875e-13, global = 4.9017814e-15, cumulative = 1.6704387e-14
DILUPBiCGStab:  Solving for omega, Initial residual = 7.7331566e-05, Final residual = 1.1779441e-16, No Iterations 3
DILUPBiCGStab:  Solving for k, Initial residual = 0.86572255, Final residual = 5.7577721e-13, No Iterations 3
ExecutionTime = 2.004136 s  ClockTime = 2 s



volFieldValue mindomain_scalar write:
    min() of p = -0.0015581923 at location (0.0060340464 1.0023271e-06 0.5) in cell 25
    min() of k = 1.1031312e-09 at location (0.010095216 1.0023271e-06 0.5) in cell 26
    min() of omega = 442.24483 at location (1.9785208 0.94257453 0.5) in cell 13055
    min() of nut = 6.9266957e-17 at location (0.010095216 1.0023271e-06 0.5) in cell 26

volFieldValue mindomain_vector write:
    minMag() of U = 0.028046549 at location (0.0060340464 1.0023271e-06 0.5) in cell 25

volFieldValue maxdomain_scalar write:
    max() of p = 0.0077473613 at location (-0.0020050773 1.0023271e-06 0.5) in cell 23
    max() of k = 0.00013849441 at location (-0.31329649 1.0023271e-06 0.5) in cell 0
    max() of omega = 15925793 at location (1.9785208 1.0023271e-06 0.5) in cell 135
    max() of nut = 1.9936879e-07 at location (-0.31329649 1.1864417e-05 0.5) in cell 680

volFieldValue maxdomain_vector write:
    maxMag() of U = 1.0019248 at location (0.0020059438 0.00026546084 0.5) in cell 3832

yPlus yplus_stats write:
    patch bottom y+ : min = 9.1170362e-05, max = 0.00032963844, average = 9.3940763e-05

Courant Number mean: 0.12845641 max: 1.7030712
deltaT = 0.0026399291
Time = 0.0153064s

DILUPBiCGStab:  Solving for Ux, Initial residual = 6.3952872e-05, Final residual = 5.8687987e-09, No Iterations 1
DILUPBiCGStab:  Solving for Uy, Initial residual = 0.0088341795, Final residual = 2.8071655e-09, No Iterations 2
DICPCG:  Solving for p, Initial residual = 0.014168959, Final residual = 0.00012627218, No Iterations 81
DICPCG:  Solving for p, Initial residual = 0.0001369041, Final residual = 1.3109817e-06, No Iterations 36
time step continuity errors : sum local = 5.4605448e-13, global = 2.1345466e-14
DICPCG:  Solving for p, Initial residual = 0.0084543275, Final residual = 7.9734747e-05, No Iterations 64
DICPCG:  Solving for p, Initial residual = 7.9988557e-05, Final residual = 9.5418126e-07, No Iterations 78
time step continuity errors : sum local = 4.012772e-13, global = -5.3397133e-15, cumulative = 1.1364674e-14
DILUPBiCGStab:  Solving for omega, Initial residual = 7.6703204e-05, Final residual = 2.2908523e-16, No Iterations 3
DILUPBiCGStab:  Solving for k, Initial residual = 0.8596137, Final residual = 1.2956392e-12, No Iterations 3
ExecutionTime = 2.125354 s  ClockTime = 2 s



volFieldValue mindomain_scalar write:
    min() of p = -0.0021683269 at location (0.0060340464 1.0023271e-06 0.5) in cell 25
    min() of k = 1.0557783e-09 at location (0.010095216 1.0023271e-06 0.5) in cell 26
    min() of omega = 406.50263 at location (1.9785208 0.94257453 0.5) in cell 13055
    min() of nut = 6.6293609e-17 at location (0.010095216 1.0023271e-06 0.5) in cell 26

volFieldValue mindomain_vector write:
    minMag() of U = 0.026560576 at location (0.0060340464 1.0023271e-06 0.5) in cell 25

volFieldValue maxdomain_scalar write:
    max() of p = 0.0076194595 at location (-0.0020050773 1.0023271e-06 0.5) in cell 23
    max() of k = 0.00013753441 at location (-0.31329649 1.0023271e-06 0.5) in cell 0
    max() of omega = 15925793 at location (1.9785208 1.0023271e-06 0.5) in cell 135
    max() of nut = 1.9932427e-07 at location (-0.31329649 1.1864417e-05 0.5) in cell 680

volFieldValue maxdomain_vector write:
    maxMag() of U = 1.002008 at location (0.0020059438 0.00026546084 0.5) in cell 3832

yPlus yplus_stats write:
    patch bottom y+ : min = 8.9192113e-05, max = 0.00032674934, average = 9.201567e-05

Courant Number mean: 0.15387311 max: 2.0597997
deltaT = 0.0031662172
Time = 0.0184727s

DILUPBiCGStab:  Solving for Ux, Initial residual = 6.8089543e-05, Final residual = 8.3559757e-09, No Iterations 1
DILUPBiCGStab:  Solving for Uy, Initial residual = 0.0088067852, Final residual = 4.5590356e-09, No Iterations 2
DICPCG:  Solving for p, Initial residual = 0.015155446, Final residual = 0.00015114459, No Iterations 77
DICPCG:  Solving for p, Initial residual = 0.0001629654, Final residual = 1.451501e-06, No Iterations 39
time step continuity errors : sum local = 8.1137794e-13, global = 9.4379651e-14
DICPCG:  Solving for p, Initial residual = 0.0094484258, Final residual = 7.7229101e-05, No Iterations 64
DICPCG:  Solving for p, Initial residual = 7.7447978e-05, Final residual = 9.8992414e-07, No Iterations 40
time step continuity errors : sum local = 5.5842362e-13, global = 1.1852767e-13, cumulative = 1.2989235e-13
DILUPBiCGStab:  Solving for omega, Initial residual = 7.4014835e-05, Final residual = 4.3187152e-16, No Iterations 3
DILUPBiCGStab:  Solving for k, Initial residual = 0.84620165, Final residual = 3.3492658e-12, No Iterations 3
ExecutionTime = 2.227544 s  ClockTime = 2 s



volFieldValue mindomain_scalar write:
    min() of p = -0.002726156 at location (0.0060340464 1.0023271e-06 0.5) in cell 25
    min() of k = 1.016799e-09 at location (0.010095216 1.0023271e-06 0.5) in cell 26
    min() of omega = 370.3252 at location (1.9785208 0.94257453 0.5) in cell 13055
    min() of nut = 6.384605e-17 at location (0.010095216 1.0023271e-06 0.5) in cell 26

volFieldValue mindomain_vector write:
    minMag() of U = 0.025187919 at location (0.010095216 1.0023271e-06 0.5) in cell 26

volFieldValue maxdomain_scalar write:
    max() of p = 0.0074530375 at location (-0.0020050773 1.0023271e-06 0.5) in cell 23
    max() of k = 0.00013925989 at location (0.0060340464 6.84669e-05 0.5) in cell 2337
    max() of omega = 15925793 at location (1.9785208 1.0023271e-06 0.5) in cell 135
    max() of nut = 1.9927927e-07 at location (-0.31329649 1.1864417e-05 0.5) in cell 680

volFieldValue maxdomain_vector write:
    maxMag() of U = 1.0020568 at location (0.0020059438 0.0002999673 0.5) in cell 3968

yPlus yplus_stats write:
    patch bottom y+ : min = 8.7530144e-05, max = 0.00032413636, average = 9.0385151e-05

Courant Number mean: 0.18454902 max: 2.4925349
deltaT = 0.0037896809
Time = 0.0222623s

DILUPBiCGStab:  Solving for Ux, Initial residual = 7.2628633e-05, Final residual = 3.6396101e-10, No Iterations 2
DILUPBiCGStab:  Solving for Uy, Initial residual = 0.0087536677, Final residual = 6.7919053e-09, No Iterations 2
DICPCG:  Solving for p, Initial residual = 0.01832921, Final residual = 0.00018142807, No Iterations 71
DICPCG:  Solving for p, Initial residual = 0.00019487503, Final residual = 1.7414748e-06, No Iterations 36
time step continuity errors : sum local = 1.3014769e-12, global = 1.8481853e-13
DICPCG:  Solving for p, Initial residual = 0.012044573, Final residual = 0.00011273707, No Iterations 62
DICPCG:  Solving for p, Initial residual = 0.00011293667, Final residual = 7.9313288e-07, No Iterations 81
time step continuity errors : sum local = 5.9841395e-13, global = 3.8796105e-15, cumulative = 1.3377196e-13
DILUPBiCGStab:  Solving for omega, Initial residual = 7.0013713e-05, Final residual = 8.1028817e-16, No Iterations 3
DILUPBiCGStab:  Solving for k, Initial residual = 0.74589591, Final residual = 9.9976347e-12, No Iterations 3
ExecutionTime = 2.336754 s  ClockTime = 2 s



volFieldValue mindomain_scalar write:
    min() of p = -0.0032065604 at location (0.0060340464 1.0023271e-06 0.5) in cell 25
    min() of k = 9.8486328e-10 at location (0.010095216 1.0023271e-06 0.5) in cell 26
    min() of omega = 334.41666 at location (1.9785208 0.94257453 0.5) in cell 13055
    min() of nut = 6.1840769e-17 at location (0.010095216 1.0023271e-06 0.5) in cell 26

volFieldValue mindomain_vector write:
    minMag() of U = 0.023886494 at location (0.010095216 1.0023271e-06 0.5) in cell 26

volFieldValue maxdomain_scalar write:
    max() of p = 0.0072833817 at location (-0.0020050773 1.0023271e-06 0.5) in cell 23
    max() of k = 0.00015038734 at location (0.0060340464 6.84669e-05 0.5) in cell 2337
    max() of omega = 15925793 at location (1.9785208 1.0023271e-06 0.5) in cell 135
    max() of nut = 1.9923361e-07 at location (-0.31329649 1.1864417e-05 0.5) in cell 680

volFieldValue maxdomain_vector write:
    maxMag() of U = 1.0021488 at location (0.0060340464 0.00033894396 0.5) in cell 4105

yPlus yplus_stats write:
    patch bottom y+ : min = 8.6144601e-05, max = 0.00032169797, average = 8.8995022e-05

Courant Number mean: 0.2208891 max: 3.017303
deltaT = 0.004547617
Time = 0.02681s

DILUPBiCGStab:  Solving for Ux, Initial residual = 7.7917574e-05, Final residual = 5.8865186e-10, No Iterations 2
DILUPBiCGStab:  Solving for Uy, Initial residual = 0.0087600616, Final residual = 9.6377518e-10, No Iterations 2
DICPCG:  Solving for p, Initial residual = 0.023783865, Final residual = 0.00022657553, No Iterations 69
DICPCG:  Solving for p, Initial residual = 0.00024242903, Final residual = 2.1951126e-06, No Iterations 36
time step continuity errors : sum local = 2.2063924e-12, global = 2.2684269e-13
DICPCG:  Solving for p, Initial residual = 0.015577025, Final residual = 0.0001538682, No Iterations 22
DICPCG:  Solving for p, Initial residual = 0.00015308993, Final residual = 8.6866009e-07, No Iterations 73
time step continuity errors : sum local = 8.8689387e-13, global = 3.0185273e-15, cumulative = 1.3679048e-13
DILUPBiCGStab:  Solving for omega, Initial residual = 6.4611168e-05, Final residual = 1.5239533e-15, No Iterations 3
DILUPBiCGStab:  Solving for k, Initial residual = 0.46168279, Final residual = 2.0273457e-11, No Iterations 3
ExecutionTime = 2.437837 s  ClockTime = 3 s



volFieldValue mindomain_scalar write:
    min() of p = -0.0035898481 at location (0.0060340464 1.0023271e-06 0.5) in cell 25
    min() of k = 9.5923449e-10 at location (0.010095216 1.0023271e-06 0.5) in cell 26
    min() of omega = 299.3072 at location (1.9785208 0.94257453 0.5) in cell 13055
    min() of nut = 6.0231506e-17 at location (0.010095216 1.0023271e-06 0.5) in cell 26

volFieldValue mindomain_vector write:
    minMag() of U = 0.022686893 at location (0.010095216 1.0023271e-06 0.5) in cell 26

volFieldValue maxdomain_scalar write:
    max() of p = 0.0071324026 at location (-0.0020050773 1.0023271e-06 0.5) in cell 23
    max() of k = 0.00016269717 at location (0.0060340464 6.84669e-05 0.5) in cell 2337
    max() of omega = 15925793 at location (1.9785208 1.0023271e-06 0.5) in cell 135
    max() of nut = 1.9918676e-07 at location (-0.31329649 1.1864417e-05 0.5) in cell 680

volFieldValue maxdomain_vector write:
    maxMag() of U = 1.0022303 at location (0.0060340464 0.00038297165 0.5) in cell 4241

yPlus yplus_stats write:
    patch bottom y+ : min = 8.5016356e-05, max = 0.00031935317, average = 8.780792e-05

Courant Number mean: 0.26506731 max: 3.6629334
deltaT = 0.0054368159
Time = 0.0322468s

DILUPBiCGStab:  Solving for Ux, Initial residual = 8.3543499e-05, Final residual = 9.3392345e-10, No Iterations 2
DILUPBiCGStab:  Solving for Uy, Initial residual = 0.0088431225, Final residual = 1.5846505e-09, No Iterations 2
DICPCG:  Solving for p, Initial residual = 0.02755443, Final residual = 0.0002461949, No Iterations 68
DICPCG:  Solving for p, Initial residual = 0.00026095705, Final residual = 2.3302649e-06, No Iterations 32
time step continuity errors : sum local = 3.1607231e-12, global = 4.6012303e-13
DICPCG:  Solving for p, Initial residual = 0.0191787, Final residual = 0.00019105229, No Iterations 7
DICPCG:  Solving for p, Initial residual = 0.00019007471, Final residual = 9.5072663e-07, No Iterations 87
time step continuity errors : sum local = 1.3083377e-12, global = 3.3569582e-14, cumulative = 1.7036007e-13
DILUPBiCGStab:  Solving for omega, Initial residual = 5.820707e-05, Final residual = 2.7942995e-15, No Iterations 3
DILUPBiCGStab:  Solving for k, Initial residual = 0.31480451, Final residual = 3.8738739e-11, No Iterations 3
ExecutionTime = 2.541924 s  ClockTime = 3 s



volFieldValue mindomain_scalar write:
    min() of p = -0.0038592416 at location (0.0060340464 1.0023271e-06 0.5) in cell 25
    min() of k = 9.3956424e-10 at location (0.010095216 1.0023271e-06 0.5) in cell 26
    min() of omega = 265.6969 at location (1.9785208 0.94257453 0.5) in cell 13055
    min() of nut = 5.8996387e-17 at location (0.010095216 1.0023271e-06 0.5) in cell 26

volFieldValue mindomain_vector write:
    minMag() of U = 0.021578792 at location (0.010095216 1.0023271e-06 0.5) in cell 26

volFieldValue maxdomain_scalar write:
    max() of p = 0.0070196887 at location (-0.0020050773 1.0023271e-06 0.5) in cell 23
    max() of k = 0.00017643706 at location (0.010095216 7.7588184e-05 0.5) in cell 2474
    max() of omega = 15925793 at location (1.9785208 1.0023271e-06 0.5) in cell 135
    max() of nut = 1.9913893e-07 at location (-0.31329649 1.1864417e-05 0.5) in cell 680

volFieldValue maxdomain_vector write:
    maxMag() of U = 1.0022813 at location (0.0060340464 0.00038297165 0.5) in cell 4241

yPlus yplus_stats write:
    patch bottom y+ : min = 8.414016e-05, max = 0.00031705176, average = 8.6800469e-05

Courant Number mean: 0.3168966 max: 4.4258894
deltaT = 0.0064949881
Time = 0.0387418s

DILUPBiCGStab:  Solving for Ux, Initial residual = 8.9773866e-05, Final residual = 1.4594197e-09, No Iterations 2
DILUPBiCGStab:  Solving for Uy, Initial residual = 0.0089796103, Final residual = 2.8122003e-09, No Iterations 2
DICPCG:  Solving for p, Initial residual = 0.031498735, Final residual = 0.00031411627, No Iterations 67
DICPCG:  Solving for p, Initial residual = 0.0003308217, Final residual = 3.1402438e-06, No Iterations 39
time step continuity errors : sum local = 5.7547009e-12, global = 9.0238418e-13
DICPCG:  Solving for p, Initial residual = 0.023719666, Final residual = 0.00018998359, No Iterations 7
DICPCG:  Solving for p, Initial residual = 0.00018891521, Final residual = 9.3488646e-07, No Iterations 87
time step continuity errors : sum local = 1.7380393e-12, global = 3.249575e-14, cumulative = 2.0285582e-13
DILUPBiCGStab:  Solving for omega, Initial residual = 5.1168666e-05, Final residual = 4.949123e-15, No Iterations 3
DILUPBiCGStab:  Solving for k, Initial residual = 0.22612623, Final residual = 6.2381162e-11, No Iterations 3
ExecutionTime = 2.636981 s  ClockTime = 3 s



volFieldValue mindomain_scalar write:
    min() of p = -0.0040541947 at location (0.0060340464 1.0023271e-06 0.5) in cell 25
    min() of k = 9.2566662e-10 at location (0.010095216 1.0023271e-06 0.5) in cell 26
    min() of omega = 234.07056 at location (1.9785208 0.94257453 0.5) in cell 13055
    min() of nut = 5.8123739e-17 at location (0.010095216 1.0023271e-06 0.5) in cell 26

volFieldValue mindomain_vector write:
    minMag() of U = 0.02055338 at location (0.010095216 1.0023271e-06 0.5) in cell 26

volFieldValue maxdomain_scalar write:
    max() of p = 0.006933829 at location (-0.0020050773 1.0023271e-06 0.5) in cell 23
    max() of k = 0.00019644315 at location (0.010095216 8.786571e-05 0.5) in cell 2610
    max() of omega = 15925793 at location (1.9785208 1.0023271e-06 0.5) in cell 135
    max() of nut = 1.9909161e-07 at location (-0.31329649 1.4430548e-05 0.5) in cell 816

volFieldValue maxdomain_vector write:
    maxMag() of U = 1.0022885 at location (0.0060340464 0.00038297165 0.5) in cell 4241

yPlus yplus_stats write:
    patch bottom y+ : min = 8.351556e-05, max = 0.00031477045, average = 8.5951239e-05

Courant Number mean: 0.37857507 max: 5.3389568
deltaT = 0.0077520826
Time = 0.0464938s

DILUPBiCGStab:  Solving for Ux, Initial residual = 9.6609629e-05, Final residual = 2.2454333e-09, No Iterations 2
DILUPBiCGStab:  Solving for Uy, Initial residual = 0.0090848341, Final residual = 6.4318331e-09, No Iterations 2
DICPCG:  Solving for p, Initial residual = 0.036363009, Final residual = 0.00033958463, No Iterations 67
DICPCG:  Solving for p, Initial residual = 0.00035540346, Final residual = 3.4515404e-06, No Iterations 53
time step continuity errors : sum local = 8.5718002e-12, global = 1.5008412e-12
DICPCG:  Solving for p, Initial residual = 0.02872592, Final residual = 0.00025009025, No Iterations 5
DICPCG:  Solving for p, Initial residual = 0.00024852154, Final residual = 8.8310964e-07, No Iterations 89
time step continuity errors : sum local = 2.2252457e-12, global = 4.4611614e-14, cumulative = 2.4746743e-13
DILUPBiCGStab:  Solving for omega, Initial residual = 4.4071551e-05, Final residual = 8.3580089e-15, No Iterations 3
DILUPBiCGStab:  Solving for k, Initial residual = 0.16684612, Final residual = 8.2825012e-11, No Iterations 3
ExecutionTime = 2.744289 s  ClockTime = 3 s



volFieldValue mindomain_scalar write:
    min() of p = -0.0041921458 at location (0.0060340464 1.0023271e-06 0.5) in cell 25
    min() of k = 9.1176041e-10 at location (0.014190747 1.0023271e-06 0.5) in cell 27
    min() of omega = 204.79247 at location (1.9785208 0.94257453 0.5) in cell 13055
    min() of nut = 5.7250551e-17 at location (0.014190747 1.0023271e-06 0.5) in cell 27

volFieldValue mindomain_vector write:
    minMag() of U = 0.019603344 at location (0.010095216 1.0023271e-06 0.5) in cell 26

volFieldValue maxdomain_scalar write:
    max() of p = 0.0068675812 at location (-0.0020050773 1.0023271e-06 0.5) in cell 23
    max() of k = 0.0002212917 at location (0.010095216 8.786571e-05 0.5) in cell 2610
    max() of omega = 15925793 at location (1.9785208 1.0023271e-06 0.5) in cell 135
    max() of nut = 1.9920477e-07 at location (1.2911853 0.94257453 0.5) in cell 13039

volFieldValue maxdomain_vector write:
    maxMag() of U = 1.0022679 at location (0.010095216 0.00043270649 0.5) in cell 4378

yPlus yplus_stats write:
    patch bottom y+ : min = 8.2885862e-05, max = 0.00031250037, average = 8.5246057e-05

Courant Number mean: 0.45184843 max: 6.4292439
deltaT = 0.0092573414
Time = 0.0557512s

DILUPBiCGStab:  Solving for Ux, Initial residual = 0.00010420258, Final residual = 3.3980346e-09, No Iterations 2
DILUPBiCGStab:  Solving for Uy, Initial residual = 0.0091919299, Final residual = 1.8395497e-09, No Iterations 3
DICPCG:  Solving for p, Initial residual = 0.038557143, Final residual = 0.00033386483, No Iterations 68
DICPCG:  Solving for p, Initial residual = 0.00034914262, Final residual = 3.1961001e-06, No Iterations 79
time step continuity errors : sum local = 1.0697734e-11, global = 1.6723134e-13
DICPCG:  Solving for p, Initial residual = 0.031344081, Final residual = 0.00026194596, No Iterations 5
DICPCG:  Solving for p, Initial residual = 0.00026111333, Final residual = 8.5535998e-07, No Iterations 81
time step continuity errors : sum local = 2.8878052e-12, global = -5.9706773e-14, cumulative = 1.8776066e-13
DILUPBiCGStab:  Solving for omega, Initial residual = 3.7428392e-05, Final residual = 1.3641737e-14, No Iterations 3
DILUPBiCGStab:  Solving for k, Initial residual = 0.12518297, Final residual = 9.5392113e-11, No Iterations 3
ExecutionTime = 2.850776 s  ClockTime = 3 s



volFieldValue mindomain_scalar write:
    min() of p = -0.0042808354 at location (0.0060340464 1.0023271e-06 0.5) in cell 25
    min() of k = 9.0032219e-10 at location (0.014190747 1.0023271e-06 0.5) in cell 27
    min() of omega = 178.05749 at location (1.9785208 0.94257453 0.5) in cell 13055
    min() of nut = 5.6532331e-17 at location (0.014190747 1.0023271e-06 0.5) in cell 27

volFieldValue mindomain_vector write:
    minMag() of U = 0.018722423 at location (0.010095216 1.0023271e-06 0.5) in cell 26

volFieldValue maxdomain_scalar write:
    max() of p = 0.0068139974 at location (-0.0020050773 1.0023271e-06 0.5) in cell 23
    max() of k = 0.00025176928 at location (0.010095216 8.786571e-05 0.5) in cell 2610
    max() of omega = 15925793 at location (1.9785208 1.0023271e-06 0.5) in cell 135
    max() of nut = 2.0061705e-07 at location (1.2911853 0.94257453 0.5) in cell 13039

volFieldValue maxdomain_vector write:
    maxMag() of U = 1.0022081 at location (0.0060340464 0.00038297165 0.5) in cell 4241

yPlus yplus_stats write:
    patch bottom y+ : min = 8.2364311e-05, max = 0.00031022659, average = 8.4679443e-05

Courant Number mean: 0.53958696 max: 7.7403521
deltaT = 0.0099394613
Time = 0.0656906s

DILUPBiCGStab:  Solving for Ux, Initial residual = 0.00010300485, Final residual = 3.9805924e-09, No Iterations 2
DILUPBiCGStab:  Solving for Uy, Initial residual = 0.0084469079, Final residual = 1.4779241e-09, No Iterations 3
DICPCG:  Solving for p, Initial residual = 0.040432245, Final residual = 0.00040406549, No Iterations 21
DICPCG:  Solving for p, Initial residual = 0.00039980205, Final residual = 3.9504835e-06, No Iterations 80
time step continuity errors : sum local = 1.5613111e-11, global = -6.4540093e-14
DICPCG:  Solving for p, Initial residual = 0.032658177, Final residual = 0.00026489378, No Iterations 4
DICPCG:  Solving for p, Initial residual = 0.00026454073, Final residual = 8.977727e-07, No Iterations 92
time step continuity errors : sum local = 3.5140277e-12, global = -6.8178293e-14, cumulative = 1.1958236e-13
DILUPBiCGStab:  Solving for omega, Initial residual = 2.9609859e-05, Final residual = 1.5286082e-14, No Iterations 3
DILUPBiCGStab:  Solving for k, Initial residual = 0.087869268, Final residual = 6.7123828e-11, No Iterations 3
ExecutionTime = 2.949279 s  ClockTime = 3 s



volFieldValue mindomain_scalar write:
    min() of p = -0.004215058 at location (0.0060340464 1.0023271e-06 0.5) in cell 25
    min() of k = 8.9219895e-10 at location (1.9785208 1.0023271e-06 0.5) in cell 135
    min() of omega = 156.21419 at location (1.9785208 0.94257453 0.5) in cell 13055
    min() of nut = 5.6022263e-17 at location (1.9785208 1.0023271e-06 0.5) in cell 135

volFieldValue mindomain_vector write:
    minMag() of U = 0.017906997 at location (0.010095216 1.0023271e-06 0.5) in cell 26

volFieldValue maxdomain_scalar write:
    max() of p = 0.0068732011 at location (-0.0020050773 1.0023271e-06 0.5) in cell 23
    max() of k = 0.00028876869 at location (0.010095216 8.786571e-05 0.5) in cell 2610
    max() of omega = 15925793 at location (1.9785208 1.0023271e-06 0.5) in cell 135
    max() of nut = 2.0188714e-07 at location (1.3341437 0.94257453 0.5) in cell 13040

volFieldValue maxdomain_vector write:
    maxMag() of U = 1.002227 at location (0.0060340464 0.00038297165 0.5) in cell 4241

yPlus yplus_stats write:
    patch bottom y+ : min = 8.1991899e-05, max = 0.00030794315, average = 8.4259564e-05

Courant Number mean: 0.57934706 max: 8.3723414
deltaT = 0.0099394613
Time = 0.0756301s

DILUPBiCGStab:  Solving for Ux, Initial residual = 9.6526681e-05, Final residual = 3.8745263e-09, No Iterations 2
DILUPBiCGStab:  Solving for Uy, Initial residual = 0.0078362633, Final residual = 4.5479129e-09, No Iterations 2
DICPCG:  Solving for p, Initial residual = 0.039644039, Final residual = 0.00039493064, No Iterations 25
DICPCG:  Solving for p, Initial residual = 0.00039281926, Final residual = 3.80724e-06, No Iterations 84
time step continuity errors : sum local = 1.5129217e-11, global = -2.5824883e-13
DICPCG:  Solving for p, Initial residual = 0.032675341, Final residual = 0.00026332486, No Iterations 4
DICPCG:  Solving for p, Initial residual = 0.00026325338, Final residual = 8.6816793e-07, No Iterations 92
time step continuity errors : sum local = 3.4776108e-12, global = -4.7258392e-14, cumulative = 7.2323971e-14
DILUPBiCGStab:  Solving for omega, Initial residual = 2.303315e-05, Final residual = 1.3383092e-14, No Iterations 3
DILUPBiCGStab:  Solving for k, Initial residual = 0.059985468, Final residual = 3.6837624e-11, No Iterations 3
ExecutionTime = 3.053947 s  ClockTime = 3 s



volFieldValue mindomain_scalar write:
    min() of p = -0.0040648547 at location (0.0060340464 1.0023271e-06 0.5) in cell 25
    min() of k = 8.8625106e-10 at location (1.9785208 1.0023271e-06 0.5) in cell 135
    min() of omega = 139.31985 at location (1.9785208 0.94257453 0.5) in cell 13055
    min() of nut = 5.5648788e-17 at location (1.9785208 1.0023271e-06 0.5) in cell 135

volFieldValue mindomain_vector write:
    minMag() of U = 0.017152968 at location (0.010095216 1.0023271e-06 0.5) in cell 26

volFieldValue maxdomain_scalar write:
    max() of p = 0.0069849544 at location (-0.0020050773 1.0023271e-06 0.5) in cell 23
    max() of k = 0.00033791918 at location (0.014190747 9.9452634e-05 0.5) in cell 2747
    max() of omega = 15925793 at location (1.9785208 1.0023271e-06 0.5) in cell 135
    max() of nut = 2.0275835e-07 at location (1.3341437 0.94257453 0.5) in cell 13040

volFieldValue maxdomain_vector write:
    maxMag() of U = 1.0022038 at location (0.0060340464 0.00038297165 0.5) in cell 4241

yPlus yplus_stats write:
    patch bottom y+ : min = 8.1718141e-05, max = 0.00030565223, average = 8.4003934e-05

Courant Number mean: 0.57934811 max: 8.428663
deltaT = 0.0099394613
Time = 0.0855696s

DILUPBiCGStab:  Solving for Ux, Initial residual = 9.080707e-05, Final residual = 3.7258929e-09, No Iterations 2
DILUPBiCGStab:  Solving for Uy, Initial residual = 0.0076088202, Final residual = 3.7405846e-09, No Iterations 2
DICPCG:  Solving for p, Initial residual = 0.037106396, Final residual = 0.00035001355, No Iterations 22
DICPCG:  Solving for p, Initial residual = 0.00034998642, Final residual = 3.0860951e-06, No Iterations 80
time step continuity errors : sum local = 1.2323366e-11, global = -3.8408253e-13
DICPCG:  Solving for p, Initial residual = 0.031169962, Final residual = 0.00026361972, No Iterations 4
DICPCG:  Solving for p, Initial residual = 0.00026516617, Final residual = 9.1003225e-07, No Iterations 89
time step continuity errors : sum local = 3.6086631e-12, global = 1.0825763e-13, cumulative = 1.805816e-13
DILUPBiCGStab:  Solving for omega, Initial residual = 1.8496713e-05, Final residual = 1.1547661e-14, No Iterations 3
DILUPBiCGStab:  Solving for k, Initial residual = 0.042241177, Final residual = 2.4933322e-11, No Iterations 3
ExecutionTime = 3.153026 s  ClockTime = 3 s



volFieldValue mindomain_scalar write:
    min() of p = -0.0039119485 at location (0.0060340464 1.0023271e-06 0.5) in cell 25
    min() of k = 8.8432894e-10 at location (1.9785208 1.0023271e-06 0.5) in cell 135
    min() of omega = 125.89985 at location (1.9785208 0.94257453 0.5) in cell 13055
    min() of nut = 5.5528095e-17 at location (1.9785208 1.0023271e-06 0.5) in cell 135

volFieldValue mindomain_vector write:
    minMag() of U = 0.016456105 at location (0.010095216 1.0023271e-06 0.5) in cell 26

volFieldValue maxdomain_scalar write:
    max() of p = 0.0070770934 at location (-0.0020050773 1.0023271e-06 0.5) in cell 23
    max() of k = 0.00040277969 at location (0.014190747 9.9452634e-05 0.5) in cell 2747
    max() of omega = 15925793 at location (1.9785208 1.0023271e-06 0.5) in cell 135
    max() of nut = 2.0328001e-07 at location (1.3341437 0.94257453 0.5) in cell 13040

volFieldValue maxdomain_vector write:
    maxMag() of U = 1.0021607 at location (0.0060340464 0.00038297165 0.5) in cell 4241

yPlus yplus_stats write:
    patch bottom y+ : min = 8.1629476e-05, max = 0.00030335832, average = 8.3933911e-05

Courant Number mean: 0.57934916 max: 8.483095
deltaT = 0.0099394613
Time = 0.095509s

DILUPBiCGStab:  Solving for Ux, Initial residual = 8.5647438e-05, Final residual = 3.6003971e-09, No Iterations 2
DILUPBiCGStab:  Solving for Uy, Initial residual = 0.0073594138, Final residual = 4.4356586e-09, No Iterations 2
DICPCG:  Solving for p, Initial residual = 0.032788852, Final residual = 0.00031807713, No Iterations 22
DICPCG:  Solving for p, Initial residual = 0.00031959004, Final residual = 2.6607829e-06, No Iterations 81
time step continuity errors : sum local = 1.0436857e-11, global = -3.3537732e-13
DICPCG:  Solving for p, Initial residual = 0.029478641, Final residual = 0.00026123616, No Iterations 4
DICPCG:  Solving for p, Initial residual = 0.00026361462, Final residual = 8.5248957e-07, No Iterations 89
time step continuity errors : sum local = 3.2978936e-12, global = 9.3190891e-14, cumulative = 2.7377249e-13
DILUPBiCGStab:  Solving for omega, Initial residual = 1.5112672e-05, Final residual = 1.002421e-14, No Iterations 3
DILUPBiCGStab:  Solving for k, Initial residual = 0.030400001, Final residual = 1.9664305e-11, No Iterations 3
ExecutionTime = 3.248385 s  ClockTime = 3 s



volFieldValue mindomain_scalar write:
    min() of p = -0.0037536347 at location (0.0060340464 1.0023271e-06 0.5) in cell 25
    min() of k = 8.8690536e-10 at location (1.9785208 1.0023271e-06 0.5) in cell 135
    min() of omega = 114.97042 at location (1.9785208 0.94257453 0.5) in cell 13055
    min() of nut = 5.5689872e-17 at location (1.9785208 1.0023271e-06 0.5) in cell 135

volFieldValue mindomain_vector write:
    minMag() of U = 0.015813075 at location (0.010095216 1.0023271e-06 0.5) in cell 26

volFieldValue maxdomain_scalar write:
    max() of p = 0.0071495398 at location (-0.0020050773 1.0023271e-06 0.5) in cell 23
    max() of k = 0.00048100796 at location (0.014190747 9.9452634e-05 0.5) in cell 2747
    max() of omega = 15925793 at location (1.9785208 1.0023271e-06 0.5) in cell 135
    max() of nut = 2.0354036e-07 at location (1.3771022 0.94257453 0.5) in cell 13041

volFieldValue maxdomain_vector write:
    maxMag() of U = 1.0021143 at location (0.0060340464 0.00038297165 0.5) in cell 4241

yPlus yplus_stats write:
    patch bottom y+ : min = 8.1748301e-05, max = 0.00030106577, average = 8.4070345e-05

Courant Number mean: 0.57935021 max: 8.5359628
deltaT = 0.0099394613
Time = 0.105448s

DILUPBiCGStab:  Solving for Ux, Initial residual = 8.0981412e-05, Final residual = 3.4990378e-09, No Iterations 2
DILUPBiCGStab:  Solving for Uy, Initial residual = 0.0070892763, Final residual = 4.3630732e-09, No Iterations 2
DICPCG:  Solving for p, Initial residual = 0.029820599, Final residual = 0.00027876423, No Iterations 25
DICPCG:  Solving for p, Initial residual = 0.00028012862, Final residual = 2.165065e-06, No Iterations 81
time step continuity errors : sum local = 8.2814899e-12, global = 1.3006154e-13
DICPCG:  Solving for p, Initial residual = 0.02776533, Final residual = 0.00026766724, No Iterations 4
DICPCG:  Solving for p, Initial residual = 0.00027111965, Final residual = 8.7994808e-07, No Iterations 89
time step continuity errors : sum local = 3.2945974e-12, global = 8.3674429e-14, cumulative = 3.5744692e-13
DILUPBiCGStab:  Solving for omega, Initial residual = 1.2589307e-05, Final residual = 9.117715e-15, No Iterations 3
DILUPBiCGStab:  Solving for k, Initial residual = 0.022241644, Final residual = 1.6221734e-11, No Iterations 3
ExecutionTime = 3.352358 s  ClockTime = 3 s



volFieldValue mindomain_scalar write:
    min() of p = -0.0035897967 at location (0.0060340464 1.0023271e-06 0.5) in cell 25
    min() of k = 8.9447993e-10 at location (1.9785208 1.0023271e-06 0.5) in cell 135
    min() of omega = 105.87833 at location (1.9785208 0.94257453 0.5) in cell 13055
    min() of nut = 5.6165489e-17 at location (1.9785208 1.0023271e-06 0.5) in cell 135

volFieldValue mindomain_vector write:
    minMag() of U = 0.01522149 at location (0.010095216 1.0023271e-06 0.5) in cell 26

volFieldValue maxdomain_scalar write:
    max() of p = 0.0072068457 at location (-0.0020050773 1.0023271e-06 0.5) in cell 23
    max() of k = 0.00057884462 at location (0.014190747 0.00011252163 0.5) in cell 2883
    max() of omega = 15925793 at location (1.9785208 1.0023271e-06 0.5) in cell 135
    max() of nut = 2.0361587e-07 at location (1.3771022 0.94257453 0.5) in cell 13041

volFieldValue maxdomain_vector write:
    maxMag() of U = 1.0020726 at location (0.0060340464 0.00038297165 0.5) in cell 4241

yPlus yplus_stats write:
    patch bottom y+ : min = 8.2096642e-05, max = 0.00029877272, average = 8.4435126e-05

Courant Number mean: 0.57935126 max: 8.5843731
deltaT = 0.0099394613
Time = 0.115388s

DILUPBiCGStab:  Solving for Ux, Initial residual = 7.6757523e-05, Final residual = 3.422271e-09, No Iterations 2
DILUPBiCGStab:  Solving for Uy, Initial residual = 0.0068295653, Final residual = 3.793874e-09, No Iterations 2
DICPCG:  Solving for p, Initial residual = 0.027302617, Final residual = 0.00026338718, No Iterations 27
DICPCG:  Solving for p, Initial residual = 0.00026567531, Final residual = 1.8202778e-06, No Iterations 84
time step continuity errors : sum local = 6.6992072e-12, global = 1.0594616e-13
DICPCG:  Solving for p, Initial residual = 0.026795635, Final residual = 0.00026064239, No Iterations 5
DICPCG:  Solving for p, Initial residual = 0.00026377586, Final residual = 9.5795825e-07, No Iterations 88
time step continuity errors : sum local = 3.4587545e-12, global = 8.032639e-14, cumulative = 4.3777331e-13
DILUPBiCGStab:  Solving for omega, Initial residual = 1.065688e-05, Final residual = 8.2589476e-15, No Iterations 3
DILUPBiCGStab:  Solving for k, Initial residual = 0.016414046, Final residual = 1.3633105e-11, No Iterations 3
ExecutionTime = 3.454395 s  ClockTime = 4 s



volFieldValue mindomain_scalar write:
    min() of p = -0.003415262 at location (0.0060340464 1.0023271e-06 0.5) in cell 25
    min() of k = 9.0770873e-10 at location (1.9785208 1.0023271e-06 0.5) in cell 135
    min() of omega = 98.181058 at location (1.9785208 0.94257453 0.5) in cell 13055
    min() of nut = 5.6996141e-17 at location (1.9785208 1.0023271e-06 0.5) in cell 135

volFieldValue mindomain_vector write:
    minMag() of U = 0.014679013 at location (0.010095216 1.0023271e-06 0.5) in cell 26

volFieldValue maxdomain_scalar write:
    max() of p = 0.0072550721 at location (-0.0020050773 1.0023271e-06 0.5) in cell 23
    max() of k = 0.00069590506 at location (0.014190747 0.00011252163 0.5) in cell 2883
    max() of omega = 15925793 at location (1.9785208 1.0023271e-06 0.5) in cell 135
    max() of nut = 2.035626e-07 at location (1.3771022 0.94257453 0.5) in cell 13041

volFieldValue maxdomain_vector write:
    maxMag() of U = 1.0020266 at location (0.0060340464 0.00038297165 0.5) in cell 4241

yPlus yplus_stats write:
    patch bottom y+ : min = 8.2701493e-05, max = 0.00029646184, average = 8.5056626e-05

Courant Number mean: 0.5793523 max: 8.6286838
deltaT = 0.0099394613
Time = 0.125327s

DILUPBiCGStab:  Solving for Ux, Initial residual = 7.293979e-05, Final residual = 3.3662807e-09, No Iterations 2
DILUPBiCGStab:  Solving for Uy, Initial residual = 0.0066036406, Final residual = 3.3653373e-09, No Iterations 2
DICPCG:  Solving for p, Initial residual = 0.026072662, Final residual = 0.00024095363, No Iterations 29
DICPCG:  Solving for p, Initial residual = 0.00024279323, Final residual = 2.3301777e-06, No Iterations 83
time step continuity errors : sum local = 8.2860233e-12, global = 5.3191876e-14
DICPCG:  Solving for p, Initial residual = 0.026230611, Final residual = 0.00025515165, No Iterations 5
DICPCG:  Solving for p, Initial residual = 0.00025788772, Final residual = 9.9015681e-07, No Iterations 89
time step continuity errors : sum local = 3.4647887e-12, global = 3.790523e-14, cumulative = 4.7567854e-13
DILUPBiCGStab:  Solving for omega, Initial residual = 9.1950803e-06, Final residual = 7.8414237e-15, No Iterations 3
DILUPBiCGStab:  Solving for k, Initial residual = 0.012241492, Final residual = 1.1736263e-11, No Iterations 3
ExecutionTime = 3.566474 s  ClockTime = 4 s



volFieldValue mindomain_scalar write:
    min() of p = -0.0032303805 at location (0.0060340464 1.0023271e-06 0.5) in cell 25
    min() of k = 9.2750759e-10 at location (1.9785208 1.0023271e-06 0.5) in cell 135
    min() of omega = 91.57006 at location (1.9785208 0.94257453 0.5) in cell 13055
    min() of nut = 5.8239336e-17 at location (1.9785208 1.0023271e-06 0.5) in cell 135

volFieldValue mindomain_vector write:
    minMag() of U = 0.014148807 at location (1.9785208 1.0023271e-06 0.5) in cell 135

volFieldValue maxdomain_scalar write:
    max() of p = 0.0072961749 at location (-0.0020050773 1.0023271e-06 0.5) in cell 23
    max() of k = 0.00083336153 at location (0.014190747 0.00011252163 0.5) in cell 2883
    max() of omega = 15925793 at location (1.9785208 1.0023271e-06 0.5) in cell 135
    max() of nut = 2.0341938e-07 at location (1.3341437 0.83431896 0.5) in cell 12904

volFieldValue maxdomain_vector write:
    maxMag() of U = 1.0020126 at location (0.010095216 0.0026983575 0.5) in cell 6418

yPlus yplus_stats write:
    patch bottom y+ : min = 8.3598566e-05, max = 0.00029412877, average = 8.597281e-05

Courant Number mean: 0.57935335 max: 8.6691353
deltaT = 0.0099394613
Time = 0.135267s

DILUPBiCGStab:  Solving for Ux, Initial residual = 6.9496368e-05, Final residual = 3.324149e-09, No Iterations 2
DILUPBiCGStab:  Solving for Uy, Initial residual = 0.0064051373, Final residual = 2.9867127e-09, No Iterations 2
DICPCG:  Solving for p, Initial residual = 0.025265496, Final residual = 0.00024825155, No Iterations 30
DICPCG:  Solving for p, Initial residual = 0.00024942167, Final residual = 2.2637853e-06, No Iterations 83
time step continuity errors : sum local = 7.8555377e-12, global = -4.2045893e-14
DICPCG:  Solving for p, Initial residual = 0.026263595, Final residual = 0.00024833601, No Iterations 5
DICPCG:  Solving for p, Initial residual = 0.00024972509, Final residual = 7.3224732e-07, No Iterations 92
time step continuity errors : sum local = 2.5255206e-12, global = -1.4053911e-14, cumulative = 4.6162463e-13
DILUPBiCGStab:  Solving for omega, Initial residual = 8.032059e-06, Final residual = 7.4415003e-15, No Iterations 3
DILUPBiCGStab:  Solving for k, Initial residual = 0.0092087782, Final residual = 1.0359286e-11, No Iterations 3
ExecutionTime = 3.676115 s  ClockTime = 4 s



volFieldValue mindomain_scalar write:
    min() of p = -0.0030291771 at location (0.0060340464 1.0023271e-06 0.5) in cell 25
    min() of k = 9.5509892e-10 at location (1.9785208 1.0023271e-06 0.5) in cell 135
    min() of omega = 85.823625 at location (1.9785208 0.94257453 0.5) in cell 13055
[...]
DILUPBiCGStab:  Solving for omega, Initial residual = 2.6008468e-12, Final residual = 4.0098022e-19, No Iterations 3
DILUPBiCGStab:  Solving for k, Initial residual = 5.0018347e-09, Final residual = 1.7697382e-16, No Iterations 3
ExecutionTime = 73.92797 s  ClockTime = 74 s



volFieldValue mindomain_scalar write:
    min() of p = -0.00037835683 at location (1.9785208 1.0023271e-06 0.5) in cell 135
    min() of k = 2.2757937e-10 at location (0.0020059438 1.0023271e-06 0.5) in cell 24
    min() of omega = 5.0421797 at location (1.9785208 0.94257453 0.5) in cell 13055
    min() of nut = 1.4289987e-17 at location (0.0020059438 1.0023271e-06 0.5) in cell 24

volFieldValue mindomain_vector write:
    minMag() of U = 0.0060503612 at location (1.9785208 1.0023271e-06 0.5) in cell 135

volFieldValue maxdomain_scalar write:
    max() of p = 0.012321808 at location (-0.0020050773 1.0023271e-06 0.5) in cell 23
    max() of k = 0.0062326136 at location (0.022490245 0.00012726745 0.5) in cell 3021
    max() of omega = 15925793 at location (1.9785208 1.0023271e-06 0.5) in cell 135
    max() of nut = 7.9205829e-05 at location (1.9785208 0.010325776 0.5) in cell 8023

volFieldValue maxdomain_vector write:
    maxMag() of U = 1.0038949 at location (1.9785208 0.072721087 0.5) in cell 10199

yPlus yplus_stats write:
    patch bottom y+ : min = 4.1410125e-05, max = 0.00051133066, average = 0.00030067527

Courant Number mean: 0.58338939 max: 8.8573336
deltaT = 0.01
Time = 9.93s

DILUPBiCGStab:  Solving for Ux, Initial residual = 3.5846886e-09, Final residual = 2.9089797e-11, No Iterations 1
DILUPBiCGStab:  Solving for Uy, Initial residual = 2.1220532e-06, Final residual = 3.4603657e-10, No Iterations 1
DICPCG:  Solving for p, Initial residual = 2.7075464e-06, Final residual = 7.5813529e-07, No Iterations 5
DICPCG:  Solving for p, Initial residual = 7.5813538e-07, Final residual = 6.0351548e-07, No Iterations 2
time step continuity errors : sum local = 5.63691e-12, global = 2.4848426e-12
DICPCG:  Solving for p, Initial residual = 1.7027835e-06, Final residual = 5.0101633e-07, No Iterations 2
DICPCG:  Solving for p, Initial residual = 5.010163e-07, Final residual = 4.5857182e-07, No Iterations 1
time step continuity errors : sum local = 4.2831205e-12, global = 2.4348536e-12, cumulative = -1.0875744e-09
DILUPBiCGStab:  Solving for omega, Initial residual = 2.5677233e-12, Final residual = 3.9771059e-19, No Iterations 3
DILUPBiCGStab:  Solving for k, Initial residual = 4.9346858e-09, Final residual = 1.7708664e-16, No Iterations 3
ExecutionTime = 73.975802 s  ClockTime = 74 s



volFieldValue mindomain_scalar write:
    min() of p = -0.00037836204 at location (1.9785208 1.0023271e-06 0.5) in cell 135
    min() of k = 2.275528e-10 at location (0.0020059438 1.0023271e-06 0.5) in cell 24
    min() of omega = 5.0421797 at location (1.9785208 0.94257453 0.5) in cell 13055
    min() of nut = 1.4288319e-17 at location (0.0020059438 1.0023271e-06 0.5) in cell 24

volFieldValue mindomain_vector write:
    minMag() of U = 0.0060503556 at location (1.9785208 1.0023271e-06 0.5) in cell 135

volFieldValue maxdomain_scalar write:
    max() of p = 0.012321803 at location (-0.0020050773 1.0023271e-06 0.5) in cell 23
    max() of k = 0.0062326131 at location (0.022490245 0.00012726745 0.5) in cell 3021
    max() of omega = 15925793 at location (1.9785208 1.0023271e-06 0.5) in cell 135
    max() of nut = 7.9205867e-05 at location (1.9785208 0.010325776 0.5) in cell 8023

volFieldValue maxdomain_vector write:
    maxMag() of U = 1.0038949 at location (1.9785208 0.072721087 0.5) in cell 10199

yPlus yplus_stats write:
    patch bottom y+ : min = 4.1407708e-05, max = 0.00051133049, average = 0.00030067522

Courant Number mean: 0.58338939 max: 8.8573311
deltaT = 0.01
Time = 9.94s

DILUPBiCGStab:  Solving for Ux, Initial residual = 3.5506063e-09, Final residual = 2.8802275e-11, No Iterations 1
DILUPBiCGStab:  Solving for Uy, Initial residual = 2.0436756e-06, Final residual = 3.448268e-10, No Iterations 1
DICPCG:  Solving for p, Initial residual = 2.4575656e-06, Final residual = 8.151924e-07, No Iterations 2
DICPCG:  Solving for p, Initial residual = 8.1519236e-07, Final residual = 8.1632157e-07, No Iterations 3
time step continuity errors : sum local = 7.6245492e-12, global = 2.5669475e-12
DICPCG:  Solving for p, Initial residual = 1.9409247e-06, Final residual = 7.2385865e-07, No Iterations 2
DICPCG:  Solving for p, Initial residual = 7.2385869e-07, Final residual = 5.4359517e-07, No Iterations 1
time step continuity errors : sum local = 5.0772464e-12, global = 2.4906575e-12, cumulative = -1.0850837e-09
DILUPBiCGStab:  Solving for omega, Initial residual = 2.5422178e-12, Final residual = 3.9565735e-19, No Iterations 3
DILUPBiCGStab:  Solving for k, Initial residual = 4.8681385e-09, Final residual = 1.7654371e-16, No Iterations 3
ExecutionTime = 74.02154 s  ClockTime = 74 s



volFieldValue mindomain_scalar write:
    min() of p = -0.00037836706 at location (1.9785208 1.0023271e-06 0.5) in cell 135
    min() of k = 2.2752643e-10 at location (0.0020059438 1.0023271e-06 0.5) in cell 24
    min() of omega = 5.0421797 at location (1.9785208 0.94257453 0.5) in cell 13055
    min() of nut = 1.4286663e-17 at location (0.0020059438 1.0023271e-06 0.5) in cell 24

volFieldValue mindomain_vector write:
    minMag() of U = 0.00605035 at location (1.9785208 1.0023271e-06 0.5) in cell 135

volFieldValue maxdomain_scalar write:
    max() of p = 0.012321796 at location (-0.0020050773 1.0023271e-06 0.5) in cell 23
    max() of k = 0.0062326126 at location (0.022490245 0.00012726745 0.5) in cell 3021
    max() of omega = 15925793 at location (1.9785208 1.0023271e-06 0.5) in cell 135
    max() of nut = 7.9205905e-05 at location (1.9785208 0.010325776 0.5) in cell 8023

volFieldValue maxdomain_vector write:
    maxMag() of U = 1.0038949 at location (1.9785208 0.072721087 0.5) in cell 10199

yPlus yplus_stats write:
    patch bottom y+ : min = 4.1405308e-05, max = 0.00051133033, average = 0.00030067517

Courant Number mean: 0.58338939 max: 8.8573287
deltaT = 0.01
Time = 9.95s

DILUPBiCGStab:  Solving for Ux, Initial residual = 3.4714765e-09, Final residual = 2.8421903e-11, No Iterations 1
DILUPBiCGStab:  Solving for Uy, Initial residual = 2.0185105e-06, Final residual = 3.3902158e-10, No Iterations 1
DICPCG:  Solving for p, Initial residual = 2.4574902e-06, Final residual = 7.6299751e-07, No Iterations 2
DICPCG:  Solving for p, Initial residual = 7.6299742e-07, Final residual = 6.8510879e-07, No Iterations 3
time step continuity errors : sum local = 6.3990021e-12, global = 2.3817019e-12
DICPCG:  Solving for p, Initial residual = 1.7040486e-06, Final residual = 5.4815633e-07, No Iterations 2
DICPCG:  Solving for p, Initial residual = 5.4815629e-07, Final residual = 4.6203059e-07, No Iterations 1
time step continuity errors : sum local = 4.3154218e-12, global = 2.3038218e-12, cumulative = -1.0827799e-09
DILUPBiCGStab:  Solving for omega, Initial residual = 2.510836e-12, Final residual = 3.930326e-19, No Iterations 3
DILUPBiCGStab:  Solving for k, Initial residual = 4.8026606e-09, Final residual = 1.7635122e-16, No Iterations 3
ExecutionTime = 74.068482 s  ClockTime = 74 s



volFieldValue mindomain_scalar write:
    min() of p = -0.00037837175 at location (1.9785208 1.0023271e-06 0.5) in cell 135
    min() of k = 2.2750026e-10 at location (0.0020059438 1.0023271e-06 0.5) in cell 24
    min() of omega = 5.0421797 at location (1.9785208 0.94257453 0.5) in cell 13055
    min() of nut = 1.428502e-17 at location (0.0020059438 1.0023271e-06 0.5) in cell 24

volFieldValue mindomain_vector write:
    minMag() of U = 0.0060503445 at location (1.9785208 1.0023271e-06 0.5) in cell 135

volFieldValue maxdomain_scalar write:
    max() of p = 0.012321789 at location (-0.0020050773 1.0023271e-06 0.5) in cell 23
    max() of k = 0.006232612 at location (0.022490245 0.00012726745 0.5) in cell 3021
    max() of omega = 15925793 at location (1.9785208 1.0023271e-06 0.5) in cell 135
    max() of nut = 7.9205943e-05 at location (1.9785208 0.010325776 0.5) in cell 8023

volFieldValue maxdomain_vector write:
    maxMag() of U = 1.0038949 at location (1.9785208 0.072721087 0.5) in cell 10199

yPlus yplus_stats write:
    patch bottom y+ : min = 4.1402927e-05, max = 0.00051133017, average = 0.00030067513

Courant Number mean: 0.58338939 max: 8.8573263
deltaT = 0.01
Time = 9.96s

DILUPBiCGStab:  Solving for Ux, Initial residual = 3.4273038e-09, Final residual = 2.8122253e-11, No Iterations 1
DILUPBiCGStab:  Solving for Uy, Initial residual = 1.9705413e-06, Final residual = 3.3479093e-10, No Iterations 1
DICPCG:  Solving for p, Initial residual = 2.4009465e-06, Final residual = 6.7776882e-07, No Iterations 2
DICPCG:  Solving for p, Initial residual = 6.7776875e-07, Final residual = 7.121191e-07, No Iterations 2
time step continuity errors : sum local = 6.6512831e-12, global = 1.9964581e-12
DICPCG:  Solving for p, Initial residual = 1.7064096e-06, Final residual = 3.9648317e-07, No Iterations 2
DICPCG:  Solving for p, Initial residual = 3.9648315e-07, Final residual = 4.1103077e-07, No Iterations 1
time step continuity errors : sum local = 3.8390786e-12, global = 1.949514e-12, cumulative = -1.0808304e-09
DILUPBiCGStab:  Solving for omega, Initial residual = 2.4850387e-12, Final residual = 3.9084342e-19, No Iterations 3
DILUPBiCGStab:  Solving for k, Initial residual = 4.7380842e-09, Final residual = 1.7525439e-16, No Iterations 3
ExecutionTime = 74.117072 s  ClockTime = 74 s



volFieldValue mindomain_scalar write:
    min() of p = -0.00037837584 at location (1.9785208 1.0023271e-06 0.5) in cell 135
    min() of k = 2.2747428e-10 at location (0.0020059438 1.0023271e-06 0.5) in cell 24
    min() of omega = 5.0421797 at location (1.9785208 0.94257453 0.5) in cell 13055
    min() of nut = 1.4283388e-17 at location (0.0020059438 1.0023271e-06 0.5) in cell 24

volFieldValue mindomain_vector write:
    minMag() of U = 0.0060503391 at location (1.9785208 1.0023271e-06 0.5) in cell 135

volFieldValue maxdomain_scalar write:
    max() of p = 0.012321784 at location (-0.0020050773 1.0023271e-06 0.5) in cell 23
    max() of k = 0.0062326115 at location (0.022490245 0.00012726745 0.5) in cell 3021
    max() of omega = 15925793 at location (1.9785208 1.0023271e-06 0.5) in cell 135
    max() of nut = 7.920598e-05 at location (1.9785208 0.010325776 0.5) in cell 8023

volFieldValue maxdomain_vector write:
    maxMag() of U = 1.0038949 at location (1.9785208 0.072721087 0.5) in cell 10199

yPlus yplus_stats write:
    patch bottom y+ : min = 4.1400563e-05, max = 0.00051133, average = 0.00030067508

Courant Number mean: 0.58338939 max: 8.8573239
deltaT = 0.01
Time = 9.97s

DILUPBiCGStab:  Solving for Ux, Initial residual = 3.3748282e-09, Final residual = 2.7803705e-11, No Iterations 1
DILUPBiCGStab:  Solving for Uy, Initial residual = 1.9372831e-06, Final residual = 3.3024069e-10, No Iterations 1
DICPCG:  Solving for p, Initial residual = 2.2035517e-06, Final residual = 4.4849611e-07, No Iterations 2
DICPCG:  Solving for p, Initial residual = 4.4849603e-07, Final residual = 5.3281705e-07, No Iterations 2
time step continuity errors : sum local = 4.9765814e-12, global = 1.5579368e-12
DICPCG:  Solving for p, Initial residual = 1.6561913e-06, Final residual = 3.3630215e-07, No Iterations 2
DICPCG:  Solving for p, Initial residual = 3.3630215e-07, Final residual = 3.4380136e-07, No Iterations 1
time step continuity errors : sum local = 3.2111518e-12, global = 1.5136846e-12, cumulative = -1.0793167e-09
DILUPBiCGStab:  Solving for omega, Initial residual = 2.4555907e-12, Final residual = 3.8784476e-19, No Iterations 3
DILUPBiCGStab:  Solving for k, Initial residual = 4.6745261e-09, Final residual = 1.7481902e-16, No Iterations 3
ExecutionTime = 74.165683 s  ClockTime = 74 s



volFieldValue mindomain_scalar write:
    min() of p = -0.00037838019 at location (1.9785208 1.0023271e-06 0.5) in cell 135
    min() of k = 2.274485e-10 at location (0.0020059438 1.0023271e-06 0.5) in cell 24
    min() of omega = 5.0421797 at location (1.9785208 0.94257453 0.5) in cell 13055
    min() of nut = 1.4281769e-17 at location (0.0020059438 1.0023271e-06 0.5) in cell 24

volFieldValue mindomain_vector write:
    minMag() of U = 0.0060503337 at location (1.9785208 1.0023271e-06 0.5) in cell 135

volFieldValue maxdomain_scalar write:
    max() of p = 0.012321778 at location (-0.0020050773 1.0023271e-06 0.5) in cell 23
    max() of k = 0.0062326109 at location (0.022490245 0.00012726745 0.5) in cell 3021
    max() of omega = 15925793 at location (1.9785208 1.0023271e-06 0.5) in cell 135
    max() of nut = 7.9206016e-05 at location (1.9785208 0.010325776 0.5) in cell 8023

volFieldValue maxdomain_vector write:
    maxMag() of U = 1.0038949 at location (1.9785208 0.072721087 0.5) in cell 10199

yPlus yplus_stats write:
    patch bottom y+ : min = 4.1398216e-05, max = 0.00051132984, average = 0.00030067503

Courant Number mean: 0.58338939 max: 8.8573215
deltaT = 0.01
Time = 9.98s

DILUPBiCGStab:  Solving for Ux, Initial residual = 3.3457323e-09, Final residual = 2.7566382e-11, No Iterations 1
DILUPBiCGStab:  Solving for Uy, Initial residual = 1.9136615e-06, Final residual = 3.2608525e-10, No Iterations 1
DICPCG:  Solving for p, Initial residual = 2.10562e-06, Final residual = 4.0731116e-07, No Iterations 2
DICPCG:  Solving for p, Initial residual = 4.073111e-07, Final residual = 5.9117272e-07, No Iterations 2
time step continuity errors : sum local = 5.5216341e-12, global = 1.0653171e-12
DICPCG:  Solving for p, Initial residual = 1.6558907e-06, Final residual = 3.3551858e-07, No Iterations 2
DICPCG:  Solving for p, Initial residual = 3.3551853e-07, Final residual = 3.4191194e-07, No Iterations 1
time step continuity errors : sum local = 3.1935045e-12, global = 1.0221478e-12, cumulative = -1.0782945e-09
DILUPBiCGStab:  Solving for omega, Initial residual = 2.4295464e-12, Final residual = 3.8482913e-19, No Iterations 3
DILUPBiCGStab:  Solving for k, Initial residual = 4.6118083e-09, Final residual = 1.7415029e-16, No Iterations 3
ExecutionTime = 74.21187 s  ClockTime = 74 s



volFieldValue mindomain_scalar write:
    min() of p = -0.00037838451 at location (1.9785208 1.0023271e-06 0.5) in cell 135
    min() of k = 2.2742291e-10 at location (0.0020059438 1.0023271e-06 0.5) in cell 24
    min() of omega = 5.0421797 at location (1.9785208 0.94257453 0.5) in cell 13055
    min() of nut = 1.4280162e-17 at location (0.0020059438 1.0023271e-06 0.5) in cell 24

volFieldValue mindomain_vector write:
    minMag() of U = 0.0060503285 at location (1.9785208 1.0023271e-06 0.5) in cell 135

volFieldValue maxdomain_scalar write:
    max() of p = 0.012321772 at location (-0.0020050773 1.0023271e-06 0.5) in cell 23
    max() of k = 0.0062326104 at location (0.022490245 0.00012726745 0.5) in cell 3021
    max() of omega = 15925793 at location (1.9785208 1.0023271e-06 0.5) in cell 135
    max() of nut = 7.9206052e-05 at location (1.9785208 0.010325776 0.5) in cell 8023

volFieldValue maxdomain_vector write:
    maxMag() of U = 1.0038949 at location (1.9785208 0.072721087 0.5) in cell 10199

yPlus yplus_stats write:
    patch bottom y+ : min = 4.1395887e-05, max = 0.00051132968, average = 0.00030067499

Courant Number mean: 0.58338939 max: 8.8573191
deltaT = 0.01
Time = 9.99s

DILUPBiCGStab:  Solving for Ux, Initial residual = 3.2978763e-09, Final residual = 2.723478e-11, No Iterations 1
DILUPBiCGStab:  Solving for Uy, Initial residual = 1.8850762e-06, Final residual = 3.2201065e-10, No Iterations 1
DICPCG:  Solving for p, Initial residual = 2.1872892e-06, Final residual = 5.2095051e-07, No Iterations 2
DICPCG:  Solving for p, Initial residual = 5.2095045e-07, Final residual = 7.0044915e-07, No Iterations 2
time step continuity errors : sum local = 6.5422926e-12, global = 5.1901028e-13
DICPCG:  Solving for p, Initial residual = 1.7091823e-06, Final residual = 4.2029256e-07, No Iterations 2
DICPCG:  Solving for p, Initial residual = 4.2029254e-07, Final residual = 4.112336e-07, No Iterations 1
time step continuity errors : sum local = 3.8409807e-12, global = 4.9648588e-13, cumulative = -1.0777981e-09
DILUPBiCGStab:  Solving for omega, Initial residual = 2.4013013e-12, Final residual = 3.8196919e-19, No Iterations 3
DILUPBiCGStab:  Solving for k, Initial residual = 4.5500542e-09, Final residual = 1.7341011e-16, No Iterations 3
ExecutionTime = 74.259434 s  ClockTime = 74 s



volFieldValue mindomain_scalar write:
    min() of p = -0.00037838882 at location (1.9785208 1.0023271e-06 0.5) in cell 135
    min() of k = 2.273975e-10 at location (0.0020059438 1.0023271e-06 0.5) in cell 24
    min() of omega = 5.0421797 at location (1.9785208 0.94257453 0.5) in cell 13055
    min() of nut = 1.4278567e-17 at location (0.0020059438 1.0023271e-06 0.5) in cell 24

volFieldValue mindomain_vector write:
    minMag() of U = 0.0060503233 at location (1.9785208 1.0023271e-06 0.5) in cell 135

volFieldValue maxdomain_scalar write:
    max() of p = 0.012321767 at location (-0.0020050773 1.0023271e-06 0.5) in cell 23
    max() of k = 0.0062326099 at location (0.022490245 0.00012726745 0.5) in cell 3021
    max() of omega = 15925793 at location (1.9785208 1.0023271e-06 0.5) in cell 135
    max() of nut = 7.9206087e-05 at location (1.9785208 0.010325776 0.5) in cell 8023

volFieldValue maxdomain_vector write:
    maxMag() of U = 1.0038949 at location (1.9785208 0.072721087 0.5) in cell 10199

yPlus yplus_stats write:
    patch bottom y+ : min = 4.1393575e-05, max = 0.00051132952, average = 0.00030067494

Courant Number mean: 0.58338939 max: 8.8573167
deltaT = 0.01
Time = 10s

DILUPBiCGStab:  Solving for Ux, Initial residual = 3.2552356e-09, Final residual = 2.6911631e-11, No Iterations 1
DILUPBiCGStab:  Solving for Uy, Initial residual = 1.8651684e-06, Final residual = 3.1732317e-10, No Iterations 1
DICPCG:  Solving for p, Initial residual = 2.2560083e-06, Final residual = 6.487038e-07, No Iterations 2
DICPCG:  Solving for p, Initial residual = 6.4870374e-07, Final residual = 9.1475617e-07, No Iterations 2
time step continuity errors : sum local = 8.5439519e-12, global = -1.0592932e-14
DICPCG:  Solving for p, Initial residual = 1.8814746e-06, Final residual = 5.6437164e-07, No Iterations 2
DICPCG:  Solving for p, Initial residual = 5.6437156e-07, Final residual = 5.0839183e-07, No Iterations 1
time step continuity errors : sum local = 4.7484535e-12, global = -3.3461816e-14, cumulative = -1.0778315e-09
DILUPBiCGStab:  Solving for omega, Initial residual = 2.375568e-12, Final residual = 3.7896375e-19, No Iterations 3
DILUPBiCGStab:  Solving for k, Initial residual = 4.4889233e-09, Final residual = 1.7453085e-16, No Iterations 3
ExecutionTime = 74.307541 s  ClockTime = 74 s



volFieldValue mindomain_scalar write:
    min() of p = -0.00037839315 at location (1.9785208 1.0023271e-06 0.5) in cell 135
    min() of k = 2.2737229e-10 at location (0.0020059438 1.0023271e-06 0.5) in cell 24
    min() of omega = 5.0421797 at location (1.9785208 0.94257453 0.5) in cell 13055
    min() of nut = 1.4276984e-17 at location (0.0020059438 1.0023271e-06 0.5) in cell 24

volFieldValue mindomain_vector write:
    minMag() of U = 0.0060503181 at location (1.9785208 1.0023271e-06 0.5) in cell 135

volFieldValue maxdomain_scalar write:
    max() of p = 0.012321762 at location (-0.0020050773 1.0023271e-06 0.5) in cell 23
    max() of k = 0.0062326094 at location (0.022490245 0.00012726745 0.5) in cell 3021
    max() of omega = 15925793 at location (1.9785208 1.0023271e-06 0.5) in cell 135
    max() of nut = 7.9206122e-05 at location (1.9785208 0.010325776 0.5) in cell 8023

volFieldValue maxdomain_vector write:
    maxMag() of U = 1.0038949 at location (1.9785208 0.072721087 0.5) in cell 10199

yPlus yplus_stats write:
    patch bottom y+ : min = 4.1391281e-05, max = 0.00051132936, average = 0.00030067489

End

