/*---------------------------------------------------------------------------*\
  =========                 |
  \\      /  F ield         | OpenFOAM: The Open Source CFD Toolbox
   \\    /   O peration     | Website:  https://openfoam.org
    \\  /    A nd           | Version:  12
     \\/     M anipulation  |
\*---------------------------------------------------------------------------*/
Build  : 12-86e126a7bc4d
Exec   : foamRun
Date   : Jun 14 2026
Time   : 22:07:59
Host   : "NotebookdoDan"
PID    : 72522
I/O    : uncollated
Case   : /home/danilom/OpenFOAM/danilom-12/run/GT2/SRS/DES_KO_LRN
nProcs : 1
sigFpe : Enabling floating point exception trapping (FOAM_SIGFPE).
fileModificationChecking : Monitoring run-time modified files using timeStampMaster (fileModificationSkew 10)
allowSystemOperations : Allowing user-supplied system call operations

// * * * * * * * * * * * * * * * * * * * * * * * * * * * * * * * * * * * * * //
Create time

Create mesh for time = 0

Selecting solver incompressibleFluid
Selecting viscosity model Newtonian
Selecting turbulence model type LES
Selecting LES turbulence model kOmegaSSTDES
Selecting LES delta type cubeRootVol
--> FOAM Warning : 
    From function void Foam::LESModels::cubeRootVolDelta::calcDelta()
    in file LES/LESdeltas/cubeRootVolDelta/cubeRootVolDelta.C at line 55
    Case is 2D, LES is not strictly applicable

LES
{
    LESModel        kOmegaSSTDES;
    turbulence      on;
    printCoeffs     on;
    delta           cubeRootVol;
    cubeRootVolCoeffs
    {
        deltaCoeff      1;
    }
    Ck              0.094;
    Ce              1.048;
    alphaK1         0.85;
    alphaK2         1;
    alphaOmega1     0.5;
    alphaOmega2     0.856;
    gamma1          0.55555556;
    gamma2          0.44;
    beta1           0.075;
    beta2           0.0828;
    betaStar        0.09;
    a1              0.31;
    b1              1;
    c1              10;
    F3              false;
    CDES            0.61;
}

No MRF models present

Selecting patchDistMethod meshWave
Courant Number mean: 0.0047142924 max: 0.031922057

PIMPLE: No convergence criteria found


PIMPLE: Operating solver in transient mode with 1 outer corrector
PIMPLE: Operating solver in PISO mode


    - selecting all cells
    - selected 7480 cell(s) with volume 2.33333


    - selecting all cells
    - selected 7480 cell(s) with volume 2.33333


    - selecting all cells
    - selected 7480 cell(s) with volume 2.33333


    - selecting all cells
    - selected 7480 cell(s) with volume 2.33333


    - selecting all cells
    - selected 7480 cell(s) with volume 2.33333


    - selecting all cells
    - selected 7480 cell(s) with volume 2.33333


wallShearStress wallShearStress1:
    processing all wall patches


Starting time loop



volFieldValue mindomain_scalar write:
    min() of p = 0 at location (0.0015663151 0.0004006648 0.5) in cell 0
    min() of k = 0.00015 at location (0.0015663151 0.0004006648 0.5) in cell 0
    min() of omega = 750 at location (0.0015663151 0.0004006648 0.5) in cell 0
    min() of nut = 2e-07 at location (0.0015663151 0.0004006648 0.5) in cell 0

volFieldValue mindomain_vector write:
    minMag() of U = 1 at location (0.0015663151 0.0004006648 0.5) in cell 0

volFieldValue maxdomain_scalar write:
    max() of p = 0 at location (0.0015663151 0.0004006648 0.5) in cell 0
    max() of k = 0.00015 at location (0.0015663151 0.0004006648 0.5) in cell 0
    max() of omega = 750 at location (0.0015663151 0.0004006648 0.5) in cell 0
    max() of nut = 2e-07 at location (0.0015663151 0.0004006648 0.5) in cell 0

volFieldValue maxdomain_vector write:
    maxMag() of U = 1 at location (0.0015663151 0.0004006648 0.5) in cell 0

yPlus yplus_stats write:
    patch bottom y+ : min = 13.438706, max = 13.438706, average = 13.438706

Courant Number mean: 0.0047142924 max: 0.031922057
deltaT = 0.0001199904
Time = 0.00011999s

DILUPBiCGStab:  Solving for Ux, Initial residual = 1, Final residual = 3.0353373e-11, No Iterations 1
DILUPBiCGStab:  Solving for Uy, Initial residual = 0.86576743, Final residual = 2.4432856e-11, No Iterations 1
DICPCG:  Solving for p, Initial residual = 1, Final residual = 0.0087850918, No Iterations 94
DICPCG:  Solving for p, Initial residual = 7.9313447e-05, Final residual = 9.4961487e-07, No Iterations 22
time step continuity errors : sum local = 3.2908342e-16, global = -6.4703449e-18
DICPCG:  Solving for p, Initial residual = 0.0014234537, Final residual = 1.0897268e-05, No Iterations 93
DICPCG:  Solving for p, Initial residual = 9.8175664e-06, Final residual = 8.8021156e-07, No Iterations 11
time step continuity errors : sum local = 3.0512084e-16, global = 2.8976054e-18, cumulative = 2.8976054e-18
DILUPBiCGStab:  Solving for omega, Initial residual = 0.40709421, Final residual = 3.1059097e-32, No Iterations 3
DILUPBiCGStab:  Solving for k, Initial residual = 1, Final residual = 1.0950204e-31, No Iterations 3
ExecutionTime = 0.134534 s  ClockTime = 0 s



volFieldValue mindomain_scalar write:
    min() of p = 1.5812239e-05 at location (1.9686737 0.91041837 0.5) in cell 7479
    min() of k = 0.00014892272 at location (-0.20036111 0.91041837 0.5) in cell 5671
    min() of omega = 136.11938 at location (0.46168579 0.0004006648 0.5) in cell 56
    min() of nut = 1.9989402e-07 at location (1.9686737 0.0020572852 0.5) in cell 299

volFieldValue mindomain_vector write:
    minMag() of U = 0.99992414 at location (1.9686737 0.0004006648 0.5) in cell 99

volFieldValue maxdomain_scalar write:
    max() of p = 0.0018919447 at location (-0.002447096 0.0004006648 0.5) in cell 5009
    max() of k = 0.00015178286 at location (1.9686737 0.0004006648 0.5) in cell 99
    max() of omega = 745.02628 at location (0.0015663151 0.0020572852 0.5) in cell 200
    max() of nut = 1.1150716e-06 at location (1.9686737 0.0004006648 0.5) in cell 99

volFieldValue maxdomain_vector write:
    maxMag() of U = 1.0000034 at location (0.0047470663 0.001215373 0.5) in cell 101

yPlus yplus_stats write:
    patch bottom y+ : min = 13.513837, max = 13.518334, average = 13.518209

Courant Number mean: 0.0056566986 max: 0.038304344
deltaT = 0.0001439712
Time = 0.000263962s

DILUPBiCGStab:  Solving for Ux, Initial residual = 0.054411223, Final residual = 5.2048852e-09, No Iterations 1
DILUPBiCGStab:  Solving for Uy, Initial residual = 0.11697435, Final residual = 5.0079222e-13, No Iterations 1
DICPCG:  Solving for p, Initial residual = 0.015080812, Final residual = 0.00013044973, No Iterations 86
DICPCG:  Solving for p, Initial residual = 0.00012430463, Final residual = 1.1279339e-06, No Iterations 28
time step continuity errors : sum local = 3.481011e-16, global = -2.1482716e-17
DICPCG:  Solving for p, Initial residual = 0.0016276582, Final residual = 1.6085467e-05, No Iterations 85
DICPCG:  Solving for p, Initial residual = 1.6007639e-05, Final residual = 9.6155218e-07, No Iterations 17
time step continuity errors : sum local = 2.968316e-16, global = -1.0203314e-17, cumulative = -7.3057087e-18
DILUPBiCGStab:  Solving for omega, Initial residual = 0.50347309, Final residual = 3.2823698e-33, No Iterations 3
DILUPBiCGStab:  Solving for k, Initial residual = 0.93807787, Final residual = 1.0623818e-32, No Iterations 3
ExecutionTime = 0.169695 s  ClockTime = 0 s



volFieldValue mindomain_scalar write:
    min() of p = 1.8341396e-05 at location (1.9686737 0.91041837 0.5) in cell 7479
    min() of k = 0.00014768918 at location (-0.20036111 0.91041837 0.5) in cell 5671
    min() of omega = 136.88037 at location (0.0015663151 0.0004006648 0.5) in cell 0
    min() of nut = 1.9977261e-07 at location (1.9686737 0.0020572852 0.5) in cell 299

volFieldValue mindomain_vector write:
    minMag() of U = 0.99983607 at location (1.9069548 0.0004006648 0.5) in cell 98

volFieldValue maxdomain_scalar write:
    max() of p = 0.0020574858 at location (-0.002447096 0.0004006648 0.5) in cell 5009
    max() of k = 0.00015387043 at location (1.9686737 0.0004006648 0.5) in cell 99
    max() of omega = 739.32676 at location (0.0015663151 0.0020572852 0.5) in cell 200
    max() of nut = 1.1237494e-06 at location (1.9686737 0.0004006648 0.5) in cell 99

volFieldValue maxdomain_vector write:
    maxMag() of U = 1.0000076 at location (0.0047470663 0.001215373 0.5) in cell 101

yPlus yplus_stats write:
    patch bottom y+ : min = 13.597481, max = 13.61098, average = 13.610661

Courant Number mean: 0.006787224 max: 0.045961007
deltaT = 0.00017275549
Time = 0.000436717s

DILUPBiCGStab:  Solving for Ux, Initial residual = 0.030944553, Final residual = 5.0132895e-09, No Iterations 1
DILUPBiCGStab:  Solving for Uy, Initial residual = 0.074441956, Final residual = 6.2893902e-13, No Iterations 1
DICPCG:  Solving for p, Initial residual = 0.0057001567, Final residual = 5.1220119e-05, No Iterations 80
DICPCG:  Solving for p, Initial residual = 4.8759744e-05, Final residual = 9.7604594e-07, No Iterations 24
time step continuity errors : sum local = 4.5507913e-16, global = -1.8689505e-17
DICPCG:  Solving for p, Initial residual = 0.00062441534, Final residual = 4.9673588e-06, No Iterations 80
DICPCG:  Solving for p, Initial residual = 4.9432005e-06, Final residual = 9.7669198e-07, No Iterations 7
time step continuity errors : sum local = 4.5546603e-16, global = -1.7295351e-17, cumulative = -2.460106e-17
DILUPBiCGStab:  Solving for omega, Initial residual = 0.65497234, Final residual = 2.5117662e-32, No Iterations 3
DILUPBiCGStab:  Solving for k, Initial residual = 0.89100995, Final residual = 7.1206263e-32, No Iterations 3
ExecutionTime = 0.201879 s  ClockTime = 0 s



volFieldValue mindomain_scalar write:
    min() of p = 1.7579027e-05 at location (1.9686737 0.91041837 0.5) in cell 7479
    min() of k = 0.00014625019 at location (-0.20036111 0.91041837 0.5) in cell 5671
    min() of omega = 137.7276 at location (0.0015663151 0.0004006648 0.5) in cell 0
    min() of nut = 1.9963183e-07 at location (1.9686737 0.0020572852 0.5) in cell 299

volFieldValue mindomain_vector write:
    minMag() of U = 0.99973116 at location (1.9069548 0.0004006648 0.5) in cell 98

volFieldValue maxdomain_scalar write:
    max() of p = 0.0021246011 at location (-0.002447096 0.0004006648 0.5) in cell 5009
    max() of k = 0.00015638958 at location (1.9686737 0.0004006648 0.5) in cell 99
    max() of omega = 732.66987 at location (0.0015663151 0.0020572852 0.5) in cell 200
    max() of nut = 1.1343731e-06 at location (1.9686737 0.0004006648 0.5) in cell 99

volFieldValue maxdomain_vector write:
    maxMag() of U = 1.0000126 at location (0.0047470663 0.001215373 0.5) in cell 101

yPlus yplus_stats write:
    patch bottom y+ : min = 13.690996, max = 13.721947, average = 13.721303

Courant Number mean: 0.0081442001 max: 0.05515191
deltaT = 0.00020729226
Time = 0.000644009s

DILUPBiCGStab:  Solving for Ux, Initial residual = 0.023353428, Final residual = 5.8969628e-09, No Iterations 1
DILUPBiCGStab:  Solving for Uy, Initial residual = 0.05314282, Final residual = 9.2739571e-13, No Iterations 1
DICPCG:  Solving for p, Initial residual = 0.0032173133, Final residual = 2.8481289e-05, No Iterations 77
DICPCG:  Solving for p, Initial residual = 2.8535771e-05, Final residual = 8.4364254e-07, No Iterations 24
time step continuity errors : sum local = 5.6390345e-16, global = 2.6016285e-17
DICPCG:  Solving for p, Initial residual = 0.00038219953, Final residual = 3.4599924e-06, No Iterations 76
DICPCG:  Solving for p, Initial residual = 3.4604614e-06, Final residual = 9.590556e-07, No Iterations 8
time step continuity errors : sum local = 6.4113288e-16, global = 9.8703837e-19, cumulative = -2.3614022e-17
DILUPBiCGStab:  Solving for omega, Initial residual = 0.88931448, Final residual = 1.9868573e-31, No Iterations 3
DILUPBiCGStab:  Solving for k, Initial residual = 0.85365755, Final residual = 5.2706945e-31, No Iterations 3
ExecutionTime = 0.240047 s  ClockTime = 0 s



volFieldValue mindomain_scalar write:
    min() of p = 1.6459731e-05 at location (1.9686737 0.91041837 0.5) in cell 7479
    min() of k = 0.00014456521 at location (-0.20036111 0.91041837 0.5) in cell 5671
    min() of omega = 138.6748 at location (0.0015663151 0.0004006648 0.5) in cell 0
    min() of nut = 1.9946859e-07 at location (1.9686737 0.0020572852 0.5) in cell 299

volFieldValue mindomain_vector write:
    minMag() of U = 0.99960505 at location (1.9069548 0.0004006648 0.5) in cell 98

volFieldValue maxdomain_scalar write:
    max() of p = 0.0021205103 at location (-0.002447096 0.0004006648 0.5) in cell 5009
    max() of k = 0.00015946712 at location (1.9686737 0.0004006648 0.5) in cell 99
    max() of omega = 724.86292 at location (0.0015663151 0.0020572852 0.5) in cell 200
    max() of nut = 1.147342e-06 at location (1.9686737 0.0004006648 0.5) in cell 99

volFieldValue maxdomain_vector write:
    maxMag() of U = 1.0000187 at location (0.0047470663 0.001215373 0.5) in cell 101

yPlus yplus_stats write:
    patch bottom y+ : min = 13.794474, max = 13.856304, average = 13.85513

Courant Number mean: 0.009772365 max: 0.066180432
deltaT = 0.00024871976
Time = 0.000892729s

DILUPBiCGStab:  Solving for Ux, Initial residual = 0.019195888, Final residual = 7.5535626e-09, No Iterations 1
DILUPBiCGStab:  Solving for Uy, Initial residual = 0.04296453, Final residual = 1.4850484e-12, No Iterations 1
DICPCG:  Solving for p, Initial residual = 0.0025085779, Final residual = 2.2545658e-05, No Iterations 72
DICPCG:  Solving for p, Initial residual = 2.2370348e-05, Final residual = 8.8555678e-07, No Iterations 23
time step continuity errors : sum local = 8.6077873e-16, global = -1.9683862e-17
DICPCG:  Solving for p, Initial residual = 0.0003255698, Final residual = 2.8653573e-06, No Iterations 71
DICPCG:  Solving for p, Initial residual = 2.8629602e-06, Final residual = 8.8567144e-07, No Iterations 8
time step continuity errors : sum local = 8.6097155e-16, global = -3.2745468e-17, cumulative = -5.635949e-17
DILUPBiCGStab:  Solving for omega, Initial residual = 0.92064994, Final residual = 1.1841008e-30, No Iterations 3
DILUPBiCGStab:  Solving for k, Initial residual = 0.82260971, Final residual = 4.5964649e-30, No Iterations 3
ExecutionTime = 0.271443 s  ClockTime = 0 s



volFieldValue mindomain_scalar write:
    min() of p = 1.6203347e-05 at location (1.9686737 0.91041837 0.5) in cell 7479
    min() of k = 0.00014259542 at location (-0.20036111 0.91041837 0.5) in cell 5671
    min() of omega = 139.72293 at location (0.0015663151 0.0004006648 0.5) in cell 0
    min() of nut = 1.9928023e-07 at location (-0.20036111 0.91041837 0.5) in cell 5671

volFieldValue mindomain_vector write:
    minMag() of U = 0.9994529 at location (1.9069548 0.0004006648 0.5) in cell 98

volFieldValue maxdomain_scalar write:
    max() of p = 0.0021251461 at location (-0.002447096 0.0004006648 0.5) in cell 5009
    max() of k = 0.00016325349 at location (1.9686737 0.0004006648 0.5) in cell 99
    max() of omega = 715.71957 at location (0.0047470663 0.0020572852 0.5) in cell 201
    max() of nut = 1.1631951e-06 at location (1.9686737 0.0004006648 0.5) in cell 99

volFieldValue maxdomain_vector write:
    maxMag() of U = 1.0000258 at location (0.0047470663 0.001215373 0.5) in cell 101

yPlus yplus_stats write:
    patch bottom y+ : min = 13.906724, max = 14.01984, average = 14.017819

Courant Number mean: 0.011725379 max: 0.079410549
deltaT = 0.00029841914
Time = 0.00119115s

DILUPBiCGStab:  Solving for Ux, Initial residual = 0.016786241, Final residual = 5.0465437e-14, No Iterations 1
DILUPBiCGStab:  Solving for Uy, Initial residual = 0.036931975, Final residual = 2.4995254e-12, No Iterations 1
DICPCG:  Solving for p, Initial residual = 0.0025691563, Final residual = 2.2773586e-05, No Iterations 76
DICPCG:  Solving for p, Initial residual = 2.2597508e-05, Final residual = 9.8291914e-07, No Iterations 21
time step continuity errors : sum local = 1.3875974e-15, global = -1.0134009e-16
DICPCG:  Solving for p, Initial residual = 0.00036844697, Final residual = 3.4901712e-06, No Iterations 74
DICPCG:  Solving for p, Initial residual = 3.4871737e-06, Final residual = 9.0232089e-07, No Iterations 10
time step continuity errors : sum local = 1.2741297e-15, global = -1.0093467e-17, cumulative = -6.6452957e-17
DILUPBiCGStab:  Solving for omega, Initial residual = 0.93246636, Final residual = 6.8116047e-30, No Iterations 3
DILUPBiCGStab:  Solving for k, Initial residual = 0.79562614, Final residual = 6.3431628e-29, No Iterations 3
ExecutionTime = 0.29941 s  ClockTime = 0 s



volFieldValue mindomain_scalar write:
    min() of p = 1.6451154e-05 at location (1.9686737 0.91041837 0.5) in cell 7479
    min() of k = 0.00014030156 at location (-0.20036111 0.91041837 0.5) in cell 5671
    min() of omega = 140.85989 at location (0.0015663151 0.0004006648 0.5) in cell 0
    min() of nut = 1.9906444e-07 at location (-0.20036111 0.91041837 0.5) in cell 5671

volFieldValue mindomain_vector write:
    minMag() of U = 0.99926894 at location (1.9686737 0.0004006648 0.5) in cell 99

volFieldValue maxdomain_scalar write:
    max() of p = 0.002130704 at location (-0.002447096 0.0004006648 0.5) in cell 5009
    max() of k = 0.00016794093 at location (1.9686737 0.0004006648 0.5) in cell 99
    max() of omega = 705.05005 at location (0.0047470663 0.0020572852 0.5) in cell 201
    max() of nut = 1.1826357e-06 at location (1.9686737 0.0004006648 0.5) in cell 99

volFieldValue maxdomain_vector write:
    maxMag() of U = 1.0000339 at location (0.0047470663 0.001215373 0.5) in cell 101

yPlus yplus_stats write:
    patch bottom y+ : min = 14.024774, max = 14.219689, average = 14.216343

Courant Number mean: 0.014068355 max: 0.095284031
deltaT = 0.000357996
Time = 0.00154914s

DILUPBiCGStab:  Solving for Ux, Initial residual = 0.015212521, Final residual = 9.653524e-14, No Iterations 1
DILUPBiCGStab:  Solving for Uy, Initial residual = 0.033156007, Final residual = 4.2978507e-12, No Iterations 1
DICPCG:  Solving for p, Initial residual = 0.0027271814, Final residual = 2.4829521e-05, No Iterations 78
DICPCG:  Solving for p, Initial residual = 2.454912e-05, Final residual = 9.2775325e-07, No Iterations 22
time step continuity errors : sum local = 1.9091286e-15, global = -8.7563303e-17
DICPCG:  Solving for p, Initial residual = 0.00039614593, Final residual = 3.3155022e-06, No Iterations 76
DICPCG:  Solving for p, Initial residual = 3.311467e-06, Final residual = 9.3000288e-07, No Iterations 10
time step continuity errors : sum local = 1.914109e-15, global = -2.2742288e-17, cumulative = -8.9195245e-17
DILUPBiCGStab:  Solving for omega, Initial residual = 0.94257415, Final residual = 3.8455926e-29, No Iterations 3
DILUPBiCGStab:  Solving for k, Initial residual = 0.77108011, Final residual = 7.0103069e-28, No Iterations 3
ExecutionTime = 0.331003 s  ClockTime = 0 s



volFieldValue mindomain_scalar write:
    min() of p = 1.6671863e-05 at location (1.9686737 0.91041837 0.5) in cell 7479
    min() of k = 0.00013764426 at location (-0.20036111 0.91041837 0.5) in cell 5671
    min() of omega = 142.05561 at location (0.0015663151 0.0004006648 0.5) in cell 0
    min() of nut = 1.9881948e-07 at location (-0.20036111 0.91041837 0.5) in cell 5671

volFieldValue mindomain_vector write:
    minMag() of U = 0.9990461 at location (1.9686737 0.0004006648 0.5) in cell 99

volFieldValue maxdomain_scalar write:
    max() of p = 0.0021490328 at location (0.0015663151 0.0004006648 0.5) in cell 0
    max() of k = 0.00017378266 at location (1.9686737 0.0004006648 0.5) in cell 99
    max() of omega = 692.69662 at location (-0.28438808 0.001215373 0.5) in cell 5010
    max() of nut = 1.2065737e-06 at location (1.9686737 0.0004006648 0.5) in cell 99

volFieldValue maxdomain_vector write:
    maxMag() of U = 1.000043 at location (0.0047470663 0.001215373 0.5) in cell 101

yPlus yplus_stats write:
    patch bottom y+ : min = 14.142841, max = 14.464887, average = 14.459496

Courant Number mean: 0.016876985 max: 0.11431465
deltaT = 0.00042944123
Time = 0.00197859s

DILUPBiCGStab:  Solving for Ux, Initial residual = 0.014145562, Final residual = 1.8688799e-13, No Iterations 1
DILUPBiCGStab:  Solving for Uy, Initial residual = 0.030612079, Final residual = 7.5084663e-12, No Iterations 1
DICPCG:  Solving for p, Initial residual = 0.0031478939, Final residual = 2.8881903e-05, No Iterations 79
DICPCG:  Solving for p, Initial residual = 2.8484004e-05, Final residual = 9.8862649e-07, No Iterations 22
time step continuity errors : sum local = 2.9703871e-15, global = -1.3344851e-16
DICPCG:  Solving for p, Initial residual = 0.00044331844, Final residual = 4.396693e-06, No Iterations 76
DICPCG:  Solving for p, Initial residual = 4.3903849e-06, Final residual = 9.9443928e-07, No Iterations 11
time step continuity errors : sum local = 2.9883011e-15, global = -5.0091396e-17, cumulative = -1.3928664e-16
DILUPBiCGStab:  Solving for omega, Initial residual = 0.95119109, Final residual = 2.1270006e-28, No Iterations 3
DILUPBiCGStab:  Solving for k, Initial residual = 0.74772658, Final residual = 1.0862763e-27, No Iterations 3
ExecutionTime = 0.363003 s  ClockTime = 0 s



volFieldValue mindomain_scalar write:
    min() of p = 1.6860061e-05 at location (1.9686737 0.91041837 0.5) in cell 7479
    min() of k = 0.00013458491 at location (-0.20036111 0.91041837 0.5) in cell 5671
    min() of omega = 143.2515 at location (0.0015663151 0.0004006648 0.5) in cell 0
    min() of nut = 1.9854447e-07 at location (-0.20036111 0.91041837 0.5) in cell 5671

volFieldValue mindomain_vector write:
    minMag() of U = 0.99877562 at location (1.9686737 0.0004006648 0.5) in cell 99

volFieldValue maxdomain_scalar write:
    max() of p = 0.0021791938 at location (0.0015663151 0.0004006648 0.5) in cell 0
    max() of k = 0.00018112141 at location (1.9686737 0.0004006648 0.5) in cell 99
    max() of omega = 678.47138 at location (-0.28438808 0.001215373 0.5) in cell 5010
    max() of nut = 1.2362099e-06 at location (1.9686737 0.0004006648 0.5) in cell 99

volFieldValue maxdomain_vector write:
    maxMag() of U = 1.0000531 at location (0.0047470663 0.001215373 0.5) in cell 101

yPlus yplus_stats write:
    patch bottom y+ : min = 14.251374, max = 14.767151, average = 14.758631

Courant Number mean: 0.020245125 max: 0.13713966
deltaT = 0.00051524079
Time = 0.00249383s

DILUPBiCGStab:  Solving for Ux, Initial residual = 0.013402948, Final residual = 3.6170462e-13, No Iterations 1
DILUPBiCGStab:  Solving for Uy, Initial residual = 0.028832394, Final residual = 1.3161586e-11, No Iterations 1
DICPCG:  Solving for p, Initial residual = 0.0037239973, Final residual = 3.4043103e-05, No Iterations 79
DICPCG:  Solving for p, Initial residual = 3.3483035e-05, Final residual = 9.9825698e-07, No Iterations 23
time step continuity errors : sum local = 4.3880136e-15, global = -2.2091051e-16
DICPCG:  Solving for p, Initial residual = 0.0005577421, Final residual = 5.2893242e-06, No Iterations 76
DICPCG:  Solving for p, Initial residual = 5.2804156e-06, Final residual = 9.2293185e-07, No Iterations 12
time step continuity errors : sum local = 4.0572155e-15, global = -1.0262014e-16, cumulative = -2.4190678e-16
DILUPBiCGStab:  Solving for omega, Initial residual = 0.95853041, Final residual = 1.1523621e-27, No Iterations 3
DILUPBiCGStab:  Solving for k, Initial residual = 0.72452543, Final residual = 4.0259539e-27, No Iterations 3
ExecutionTime = 0.39172 s  ClockTime = 0 s



volFieldValue mindomain_scalar write:
    min() of p = 1.7107482e-05 at location (1.9686737 0.91041837 0.5) in cell 7479
    min() of k = 0.00013108703 at location (-0.20036111 0.91041837 0.5) in cell 5671
    min() of omega = 144.35082 at location (0.0015663151 0.0004006648 0.5) in cell 0
    min() of nut = 1.9823977e-07 at location (-0.20036111 0.91041837 0.5) in cell 5671

volFieldValue mindomain_vector write:
    minMag() of U = 0.99844644 at location (1.9686737 0.0004006648 0.5) in cell 99

volFieldValue maxdomain_scalar write:
    max() of p = 0.0022136586 at location (0.0015663151 0.0004006648 0.5) in cell 0
    max() of k = 0.00019043284 at location (1.9686737 0.0004006648 0.5) in cell 99
    max() of omega = 662.19554 at location (-0.28438808 0.001215373 0.5) in cell 5010
    max() of nut = 1.273159e-06 at location (1.9686737 0.0004006648 0.5) in cell 99

volFieldValue maxdomain_vector write:
    maxMag() of U = 1.0000639 at location (0.0047470663 0.001215373 0.5) in cell 101

yPlus yplus_stats write:
    patch bottom y+ : min = 14.341998, max = 15.141983, average = 15.128701

Courant Number mean: 0.024289973 max: 0.164555
deltaT = 0.00061803356
Time = 0.00311186s

DILUPBiCGStab:  Solving for Ux, Initial residual = 0.012881641, Final residual = 6.99516e-13, No Iterations 1
DILUPBiCGStab:  Solving for Uy, Initial residual = 0.027545229, Final residual = 2.28056e-11, No Iterations 1
DICPCG:  Solving for p, Initial residual = 0.0039458513, Final residual = 3.902041e-05, No Iterations 79
DICPCG:  Solving for p, Initial residual = 3.8241649e-05, Final residual = 9.8956669e-07, No Iterations 24
time step continuity errors : sum local = 6.3796961e-15, global = -3.2675232e-16
DICPCG:  Solving for p, Initial residual = 0.00063047167, Final residual = 5.7208908e-06, No Iterations 77
DICPCG:  Solving for p, Initial residual = 5.7092257e-06, Final residual = 9.7603677e-07, No Iterations 12
time step continuity errors : sum local = 6.2929896e-15, global = -1.9481838e-16, cumulative = -4.3672516e-16
DILUPBiCGStab:  Solving for omega, Initial residual = 0.96476119, Final residual = 6.0780644e-27, No Iterations 3
DILUPBiCGStab:  Solving for k, Initial residual = 0.70036936, Final residual = 1.7561409e-26, No Iterations 3
ExecutionTime = 0.43774 s  ClockTime = 1 s



volFieldValue mindomain_scalar write:
    min() of p = 1.743036e-05 at location (1.9686737 0.91041837 0.5) in cell 7479
    min() of k = 0.00012712107 at location (1.9686737 0.91041837 0.5) in cell 7479
    min() of omega = 145.26874 at location (0.0015663151 0.0004006648 0.5) in cell 0
    min() of nut = 1.9790772e-07 at location (-0.20036111 0.91041837 0.5) in cell 5671

volFieldValue mindomain_vector write:
    minMag() of U = 0.99804469 at location (1.9686737 0.0004006648 0.5) in cell 99

volFieldValue maxdomain_scalar write:
    max() of p = 0.0022531241 at location (0.0015663151 0.0004006648 0.5) in cell 0
    max() of k = 0.00020238619 at location (1.9686737 0.0004006648 0.5) in cell 99
    max() of omega = 643.73365 at location (-0.28438808 0.001215373 0.5) in cell 5010
    max() of nut = 1.3195797e-06 at location (1.9686737 0.0004006648 0.5) in cell 99

volFieldValue maxdomain_vector write:
    maxMag() of U = 1.0000749 at location (0.0047470663 0.001215373 0.5) in cell 101

yPlus yplus_stats write:
    patch bottom y+ : min = 14.40327, max = 15.609977, average = 15.589462

Courant Number mean: 0.029135933 max: 0.19740621
deltaT = 0.00074118077
Time = 0.00385304s

DILUPBiCGStab:  Solving for Ux, Initial residual = 0.012524357, Final residual = 1.3544487e-12, No Iterations 1
DILUPBiCGStab:  Solving for Uy, Initial residual = 0.026613664, Final residual = 3.9105111e-11, No Iterations 1
DICPCG:  Solving for p, Initial residual = 0.0038406106, Final residual = 3.8262606e-05, No Iterations 80
DICPCG:  Solving for p, Initial residual = 3.7323759e-05, Final residual = 9.4062677e-07, No Iterations 25
time step continuity errors : sum local = 8.9288105e-15, global = -3.7912199e-16
DICPCG:  Solving for p, Initial residual = 0.00065403983, Final residual = 6.1391283e-06, No Iterations 78
DICPCG:  Solving for p, Initial residual = 6.1238747e-06, Final residual = 9.6407406e-07, No Iterations 12
time step continuity errors : sum local = 9.1522067e-15, global = -3.5846153e-16, cumulative = -7.9518669e-16
DILUPBiCGStab:  Solving for omega, Initial residual = 0.97005682, Final residual = 3.1125126e-26, No Iterations 3
DILUPBiCGStab:  Solving for k, Initial residual = 0.67425395, Final residual = 8.0707213e-26, No Iterations 3
ExecutionTime = 0.492185 s  ClockTime = 1 s



volFieldValue mindomain_scalar write:
    min() of p = 1.7838391e-05 at location (1.9686737 0.91041837 0.5) in cell 7479
    min() of k = 0.00012266673 at location (1.9686737 0.91041837 0.5) in cell 7479
    min() of omega = 145.88936 at location (0.0015663151 0.0004006648 0.5) in cell 0
    min() of nut = 1.9755144e-07 at location (-0.002447096 0.001215373 0.5) in cell 5019

volFieldValue mindomain_vector write:
    minMag() of U = 0.99755263 at location (1.9686737 0.0004006648 0.5) in cell 99

volFieldValue maxdomain_scalar write:
    max() of p = 0.0023011131 at location (0.0015663151 0.0004006648 0.5) in cell 0
    max() of k = 0.000217954 at location (1.9686737 0.0004006648 0.5) in cell 99
    max() of omega = 622.99826 at location (-0.28438808 0.001215373 0.5) in cell 5010
    max() of nut = 1.3784788e-06 at location (1.9686737 0.0004006648 0.5) in cell 99

volFieldValue maxdomain_vector write:
    maxMag() of U = 1.0000852 at location (0.0047470663 0.001215373 0.5) in cell 101

yPlus yplus_stats write:
    patch bottom y+ : min = 14.419127, max = 16.199225, average = 16.167716

Courant Number mean: 0.034941464 max: 0.23677021
deltaT = 0.00088941693
Time = 0.00474246s

DILUPBiCGStab:  Solving for Ux, Initial residual = 0.012306115, Final residual = 2.6273317e-12, No Iterations 1
DILUPBiCGStab:  Solving for Uy, Initial residual = 0.025974017, Final residual = 6.6372013e-11, No Iterations 1
DICPCG:  Solving for p, Initial residual = 0.003670648, Final residual = 3.6297545e-05, No Iterations 83
DICPCG:  Solving for p, Initial residual = 3.5205304e-05, Final residual = 9.0158249e-07, No Iterations 22
time step continuity errors : sum local = 1.2681657e-14, global = -5.4773606e-16
DICPCG:  Solving for p, Initial residual = 0.00067985178, Final residual = 5.9998428e-06, No Iterations 79
DICPCG:  Solving for p, Initial residual = 5.9816561e-06, Final residual = 8.5514905e-07, No Iterations 13
time step continuity errors : sum local = 1.2029853e-14, global = -4.0566246e-16, cumulative = -1.2008491e-15
DILUPBiCGStab:  Solving for omega, Initial residual = 0.97459145, Final residual = 1.5522602e-25, No Iterations 3
DILUPBiCGStab:  Solving for k, Initial residual = 0.64528947, Final residual = 3.7920884e-25, No Iterations 3
ExecutionTime = 0.530854 s  ClockTime = 1 s



volFieldValue mindomain_scalar write:
    min() of p = 1.835701e-05 at location (1.9686737 0.91041837 0.5) in cell 7479
    min() of k = 0.00011771296 at location (1.9686737 0.91041837 0.5) in cell 7479
    min() of omega = 146.04997 at location (0.0015663151 0.0004006648 0.5) in cell 0
    min() of nut = 1.9717618e-07 at location (-0.002447096 0.001215373 0.5) in cell 5019

volFieldValue mindomain_vector write:
    minMag() of U = 0.99694683 at location (1.9686737 0.0004006648 0.5) in cell 99

volFieldValue maxdomain_scalar write:
    max() of p = 0.0023608855 at location (0.0015663151 0.0004006648 0.5) in cell 0
    max() of k = 0.00023861024 at location (1.9686737 0.0004006648 0.5) in cell 99
    max() of omega = 599.95297 at location (-0.28438808 0.001215373 0.5) in cell 5010
    max() of nut = 1.4542274e-06 at location (1.9686737 0.0004006648 0.5) in cell 99

volFieldValue maxdomain_vector write:
    maxMag() of U = 1.0001027 at location (0.0080255378 0.0020572852 0.5) in cell 202

yPlus yplus_stats write:
    patch bottom y+ : min = 14.369093, max = 16.949479, average = 16.901167

Courant Number mean: 0.041929767 max: 0.28416325
deltaT = 0.0010667283
Time = 0.00580919s

DILUPBiCGStab:  Solving for Ux, Initial residual = 0.01219204, Final residual = 5.0606953e-12, No Iterations 1
DILUPBiCGStab:  Solving for Uy, Initial residual = 0.025541307, Final residual = 1.1087534e-10, No Iterations 1
DICPCG:  Solving for p, Initial residual = 0.0037703339, Final residual = 3.3437493e-05, No Iterations 84
DICPCG:  Solving for p, Initial residual = 3.2203459e-05, Final residual = 8.8513314e-07, No Iterations 22
time step continuity errors : sum local = 1.8556482e-14, global = -7.0884837e-16
DICPCG:  Solving for p, Initial residual = 0.00074789601, Final residual = 7.3283117e-06, No Iterations 79
DICPCG:  Solving for p, Initial residual = 7.3010536e-06, Final residual = 7.9411522e-07, No Iterations 14
time step continuity errors : sum local = 1.6650426e-14, global = -5.5887841e-16, cumulative = -1.7597276e-15
DILUPBiCGStab:  Solving for omega, Initial residual = 0.97847287, Final residual = 7.4659227e-25, No Iterations 3
DILUPBiCGStab:  Solving for k, Initial residual = 0.61202103, Final residual = 1.7815788e-24, No Iterations 3
ExecutionTime = 0.570894 s  ClockTime = 1 s



volFieldValue mindomain_scalar write:
    min() of p = 1.9014633e-05 at location (1.9686737 0.91041837 0.5) in cell 7479
    min() of k = 0.00011227033 at location (1.9686737 0.91041837 0.5) in cell 7479
    min() of omega = 145.54319 at location (0.0015663151 0.0004006648 0.5) in cell 0
    min() of nut = 1.9679323e-07 at location (-0.002447096 0.001215373 0.5) in cell 5019

volFieldValue mindomain_vector write:
    minMag() of U = 0.99619712 at location (1.9686737 0.0004006648 0.5) in cell 99

volFieldValue maxdomain_scalar write:
    max() of p = 0.0024359081 at location (0.0015663151 0.0004006648 0.5) in cell 0
    max() of k = 0.00026662496 at location (1.9686737 0.0004006648 0.5) in cell 99
    max() of omega = 574.677 at location (-0.28438808 0.001215373 0.5) in cell 5010
    max() of nut = 1.5530375e-06 at location (1.9686737 0.0004006648 0.5) in cell 99

volFieldValue maxdomain_vector write:
    maxMag() of U = 1.0001234 at location (0.0080255378 0.0020572852 0.5) in cell 202

yPlus yplus_stats write:
    patch bottom y+ : min = 14.228655, max = 17.916873, average = 17.84269

Courant Number mean: 0.050288771 max: 0.34086266
deltaT = 0.0012795249
Time = 0.00708871s

DILUPBiCGStab:  Solving for Ux, Initial residual = 0.012181331, Final residual = 9.6976964e-12, No Iterations 1
DILUPBiCGStab:  Solving for Uy, Initial residual = 0.025310092, Final residual = 1.8303413e-10, No Iterations 1
DICPCG:  Solving for p, Initial residual = 0.003917286, Final residual = 3.4130459e-05, No Iterations 85
DICPCG:  Solving for p, Initial residual = 3.2576686e-05, Final residual = 9.8972508e-07, No Iterations 21
time step continuity errors : sum local = 3.1198288e-14, global = -1.0095888e-15
DICPCG:  Solving for p, Initial residual = 0.00083504843, Final residual = 7.4800828e-06, No Iterations 80
DICPCG:  Solving for p, Initial residual = 7.4453616e-06, Final residual = 8.6813059e-07, No Iterations 14
time step continuity errors : sum local = 2.7372475e-14, global = -9.5724346e-16, cumulative = -2.716971e-15
DILUPBiCGStab:  Solving for omega, Initial residual = 0.98184611, Final residual = 3.4680395e-24, No Iterations 3
DILUPBiCGStab:  Solving for k, Initial residual = 0.57333574, Final residual = 8.3103881e-24, No Iterations 3
ExecutionTime = 0.60315 s  ClockTime = 1 s



volFieldValue mindomain_scalar write:
    min() of p = 1.9859204e-05 at location (1.9686737 0.91041837 0.5) in cell 7479
    min() of k = 0.0001063661 at location (1.9686737 0.91041837 0.5) in cell 7479
    min() of omega = 144.1207 at location (0.0015663151 0.0004006648 0.5) in cell 0
    min() of nut = 1.9641594e-07 at location (-0.002447096 0.001215373 0.5) in cell 5019

volFieldValue mindomain_vector write:
    minMag() of U = 0.99526259 at location (1.9686737 0.0004006648 0.5) in cell 99

volFieldValue maxdomain_scalar write:
    max() of p = 0.0025312497 at location (0.0015663151 0.0004006648 0.5) in cell 0
    max() of k = 0.0003056996 at location (1.9686737 0.0004006648 0.5) in cell 99
    max() of omega = 547.34769 at location (-0.28438808 0.001215373 0.5) in cell 5010
    max() of nut = 1.6844966e-06 at location (1.9686737 0.0004006648 0.5) in cell 99

volFieldValue maxdomain_vector write:
    maxMag() of U = 1.0001463 at location (0.0080255378 0.0020572852 0.5) in cell 202

yPlus yplus_stats write:
    patch bottom y+ : min = 13.970651, max = 19.184887, average = 19.070372

Courant Number mean: 0.060320659 max: 0.40891957
deltaT = 0.0015346388
Time = 0.00862335s

DILUPBiCGStab:  Solving for Ux, Initial residual = 0.012273384, Final residual = 1.8396167e-11, No Iterations 1
DILUPBiCGStab:  Solving for Uy, Initial residual = 0.025266002, Final residual = 2.8911412e-10, No Iterations 1
DICPCG:  Solving for p, Initial residual = 0.0039877312, Final residual = 3.3151658e-05, No Iterations 86
DICPCG:  Solving for p, Initial residual = 3.1289242e-05, Final residual = 9.255721e-07, No Iterations 21
time step continuity errors : sum local = 4.4343888e-14, global = -1.1253232e-15
DICPCG:  Solving for p, Initial residual = 0.00091377867, Final residual = 8.4237624e-06, No Iterations 81
DICPCG:  Solving for p, Initial residual = 8.3756453e-06, Final residual = 9.0117135e-07, No Iterations 15
time step continuity errors : sum local = 4.3190724e-14, global = -1.9045367e-15, cumulative = -4.6215077e-15
DILUPBiCGStab:  Solving for omega, Initial residual = 0.98483315, Final residual = 1.5533923e-23, No Iterations 3
DILUPBiCGStab:  Solving for k, Initial residual = 0.52782896, Final residual = 3.8371534e-23, No Iterations 3
ExecutionTime = 0.637166 s  ClockTime = 1 s



volFieldValue mindomain_scalar write:
    min() of p = 2.0956876e-05 at location (1.9686737 0.91041837 0.5) in cell 7479
    min() of k = 0.0001000503 at location (1.9686737 0.91041837 0.5) in cell 7479
    min() of omega = 141.5074 at location (0.0015663151 0.0004006648 0.5) in cell 0
    min() of nut = 1.9606142e-07 at location (-0.002447096 0.001215373 0.5) in cell 5019

volFieldValue mindomain_vector write:
    minMag() of U = 0.99408732 at location (1.9686737 0.0004006648 0.5) in cell 99

volFieldValue maxdomain_scalar write:
    max() of p = 0.0026544069 at location (0.0015663151 0.0004006648 0.5) in cell 0
    max() of k = 0.00036214557 at location (1.9686737 0.0004006648 0.5) in cell 99
    max() of omega = 518.27678 at location (-0.28438808 0.001215373 0.5) in cell 5010
    max() of nut = 1.8636374e-06 at location (1.9686737 0.0004006648 0.5) in cell 99

volFieldValue maxdomain_vector write:
    maxMag() of U = 1.0001698 at location (0.0080255378 0.0020572852 0.5) in cell 202

yPlus yplus_stats write:
    patch bottom y+ : min = 13.569226, max = 20.881102, average = 20.702641

Courant Number mean: 0.072347533 max: 0.4905188
deltaT = 0.0018392888
Time = 0.0104626s

DILUPBiCGStab:  Solving for Ux, Initial residual = 0.012468733, Final residual = 3.4629927e-11, No Iterations 1
DILUPBiCGStab:  Solving for Uy, Initial residual = 0.02540564, Final residual = 4.904228e-10, No Iterations 1
DICPCG:  Solving for p, Initial residual = 0.0042759909, Final residual = 4.1066806e-05, No Iterations 86
DICPCG:  Solving for p, Initial residual = 3.8226441e-05, Final residual = 9.7171598e-07, No Iterations 22
time step continuity errors : sum local = 7.1601067e-14, global = -1.818361e-15
DICPCG:  Solving for p, Initial residual = 0.0011532638, Final residual = 1.1297386e-05, No Iterations 80
DICPCG:  Solving for p, Initial residual = 1.1217411e-05, Final residual = 8.3337836e-07, No Iterations 17
time step continuity errors : sum local = 6.1442744e-14, global = -3.1270453e-15, cumulative = -7.7485531e-15
DILUPBiCGStab:  Solving for omega, Initial residual = 0.98756059, Final residual = 6.6787062e-23, No Iterations 3
DILUPBiCGStab:  Solving for k, Initial residual = 0.47409339, Final residual = 1.6950003e-22, No Iterations 3
ExecutionTime = 0.677074 s  ClockTime = 1 s



volFieldValue mindomain_scalar write:
    min() of p = 2.2408508e-05 at location (1.9686737 0.91041837 0.5) in cell 7479
    min() of k = 9.3398879e-05 at location (1.9686737 0.91041837 0.5) in cell 7479
    min() of omega = 137.4414 at location (0.0015663151 0.0004006648 0.5) in cell 0
    min() of nut = 1.9575011e-07 at location (-0.002447096 0.001215373 0.5) in cell 5019

volFieldValue mindomain_vector write:
    minMag() of U = 0.99259347 at location (1.9686737 0.0004006648 0.5) in cell 99

volFieldValue maxdomain_scalar write:
    max() of p = 0.0028136044 at location (0.0015663151 0.0004006648 0.5) in cell 0
    max() of k = 0.00044734802 at location (1.9686737 0.0004006648 0.5) in cell 99
    max() of omega = 487.93342 at location (-0.28438808 0.001215373 0.5) in cell 5010
    max() of nut = 2.1150936e-06 at location (1.9686737 0.0004006648 0.5) in cell 99

volFieldValue maxdomain_vector write:
    maxMag() of U = 1.0001954 at location (0.011404732 0.0020572852 0.5) in cell 203

yPlus yplus_stats write:
    patch bottom y+ : min = 13.007134, max = 23.207832, average = 22.92588

Courant Number mean: 0.086709713 max: 0.58796609
deltaT = 0.0022038694
Time = 0.0126665s

DILUPBiCGStab:  Solving for Ux, Initial residual = 0.012793605, Final residual = 6.4768033e-11, No Iterations 1
DILUPBiCGStab:  Solving for Uy, Initial residual = 0.025755561, Final residual = 8.3773169e-10, No Iterations 1
DICPCG:  Solving for p, Initial residual = 0.0044559142, Final residual = 3.7743135e-05, No Iterations 87
DICPCG:  Solving for p, Initial residual = 3.4523659e-05, Final residual = 9.4782063e-07, No Iterations 21
time step continuity errors : sum local = 1.0911868e-13, global = -2.7468276e-15
DICPCG:  Solving for p, Initial residual = 0.0011686957, Final residual = 1.1022936e-05, No Iterations 83
DICPCG:  Solving for p, Initial residual = 1.0928109e-05, Final residual = 9.6335977e-07, No Iterations 15
time step continuity errors : sum local = 1.1096434e-13, global = -3.5963322e-15, cumulative = -1.1344885e-14
DILUPBiCGStab:  Solving for omega, Initial residual = 0.99018736, Final residual = 2.7691932e-22, No Iterations 3
DILUPBiCGStab:  Solving for k, Initial residual = 0.41151084, Final residual = 6.9331816e-22, No Iterations 3
ExecutionTime = 0.713855 s  ClockTime = 1 s



volFieldValue mindomain_scalar write:
    min() of p = 2.4373834e-05 at location (1.9686737 0.91041837 0.5) in cell 7479
    min() of k = 8.6504834e-05 at location (1.9686737 0.91041837 0.5) in cell 7479
    min() of omega = 131.74803 at location (0.0015663151 0.0004006648 0.5) in cell 0
    min() of nut = 1.9550526e-07 at location (-0.002447096 0.001215373 0.5) in cell 5019

volFieldValue mindomain_vector write:
    minMag() of U = 0.99066738 at location (1.9686737 0.0004006648 0.5) in cell 99

volFieldValue maxdomain_scalar write:
    max() of p = 0.0030243687 at location (0.0015663151 0.0004006648 0.5) in cell 0
    max() of k = 0.0005834796 at location (1.9686737 0.0004006648 0.5) in cell 99
    max() of omega = 456.90849 at location (-0.28438808 0.001215373 0.5) in cell 5010
    max() of nut = 2.4821533e-06 at location (1.9686737 0.0004006648 0.5) in cell 99

volFieldValue maxdomain_vector write:
    maxMag() of U = 1.0002251 at location (0.011404732 0.0020572852 0.5) in cell 203

yPlus yplus_stats write:
    patch bottom y+ : min = 12.281238, max = 26.504808, average = 26.050401

Courant Number mean: 0.10389724 max: 0.70457247
deltaT = 0.0026399291
Time = 0.0153064s

DILUPBiCGStab:  Solving for Ux, Initial residual = 0.01328471, Final residual = 1.1830604e-10, No Iterations 1
DILUPBiCGStab:  Solving for Uy, Initial residual = 0.026356783, Final residual = 1.3121304e-09, No Iterations 1
DICPCG:  Solving for p, Initial residual = 0.0046171232, Final residual = 3.9587255e-05, No Iterations 88
DICPCG:  Solving for p, Initial residual = 3.5399625e-05, Final residual = 8.9660933e-07, No Iterations 21
time step continuity errors : sum local = 1.6456778e-13, global = -3.4364712e-15
DICPCG:  Solving for p, Initial residual = 0.0012946523, Final residual = 1.1798738e-05, No Iterations 84
DICPCG:  Solving for p, Initial residual = 1.1673958e-05, Final residual = 8.3610872e-07, No Iterations 16
time step continuity errors : sum local = 1.5353929e-13, global = -4.1917803e-15, cumulative = -1.5536666e-14
DILUPBiCGStab:  Solving for omega, Initial residual = 0.99291298, Final residual = 1.1091293e-21, No Iterations 3
DILUPBiCGStab:  Solving for k, Initial residual = 0.34055202, Final residual = 2.6595921e-21, No Iterations 3
ExecutionTime = 0.748559 s  ClockTime = 1 s



volFieldValue mindomain_scalar write:
    min() of p = 2.7108246e-05 at location (1.9686737 0.91041837 0.5) in cell 7479
    min() of k = 7.9476863e-05 at location (1.9686737 0.91041837 0.5) in cell 7479
    min() of omega = 124.3955 at location (0.0015663151 0.0004006648 0.5) in cell 0
    min() of nut = 1.9536649e-07 at location (-0.002447096 0.0004006648 0.5) in cell 5009

volFieldValue mindomain_vector write:
    minMag() of U = 0.98813766 at location (1.9686737 0.0004006648 0.5) in cell 99

volFieldValue maxdomain_scalar write:
    max() of p = 0.0033161149 at location (0.0015663151 0.0004006648 0.5) in cell 0
    max() of k = 0.00081761773 at location (1.9686737 0.0004006648 0.5) in cell 99
    max() of omega = 425.91263 at location (-0.28438808 0.001215373 0.5) in cell 5010
    max() of nut = 3.0455318e-06 at location (1.9686737 0.0004006648 0.5) in cell 99

volFieldValue maxdomain_vector write:
    maxMag() of U = 1.0002592 at location (0.014887743 0.0020572852 0.5) in cell 204

yPlus yplus_stats write:
    patch bottom y+ : min = 11.415961, max = 31.375234, average = 30.621781

Courant Number mean: 0.12445458 max: 0.84400326
deltaT = 0.0031662172
Time = 0.0184727s

DILUPBiCGStab:  Solving for Ux, Initial residual = 0.014019909, Final residual = 2.1002733e-10, No Iterations 1
DILUPBiCGStab:  Solving for Uy, Initial residual = 0.027345776, Final residual = 2.1046496e-09, No Iterations 1
DICPCG:  Solving for p, Initial residual = 0.0047437582, Final residual = 4.6670926e-05, No Iterations 88
DICPCG:  Solving for p, Initial residual = 4.0477306e-05, Final residual = 8.4749539e-07, No Iterations 22
time step continuity errors : sum local = 2.5580883e-13, global = -6.590616e-15
DICPCG:  Solving for p, Initial residual = 0.0013521141, Final residual = 1.2421446e-05, No Iterations 85
DICPCG:  Solving for p, Initial residual = 1.2257963e-05, Final residual = 9.2289997e-07, No Iterations 15
time step continuity errors : sum local = 2.7871303e-13, global = -7.1296992e-15, cumulative = -2.2666365e-14
DILUPBiCGStab:  Solving for omega, Initial residual = 0.96784687, Final residual = 4.2291836e-21, No Iterations 3
DILUPBiCGStab:  Solving for k, Initial residual = 0.26445782, Final residual = 1.1352786e-20, No Iterations 3
ExecutionTime = 0.784151 s  ClockTime = 1 s



volFieldValue mindomain_scalar write:
    min() of p = 3.1053917e-05 at location (1.9686737 0.91041837 0.5) in cell 7479
    min() of k = 7.2422867e-05 at location (1.9686737 0.91041837 0.5) in cell 7479
    min() of omega = 99.668428 at location (0.0015663151 0.0004006648 0.5) in cell 0
    min() of nut = 1.9533133e-07 at location (-0.002447096 0.0004006648 0.5) in cell 5009

volFieldValue mindomain_vector write:
    minMag() of U = 0.98472852 at location (1.9686737 0.0004006648 0.5) in cell 99

volFieldValue maxdomain_scalar write:
    max() of p = 0.0037242942 at location (0.0015663151 0.0004006648 0.5) in cell 0
    max() of k = 0.0012618257 at location (1.9686737 0.0004006648 0.5) in cell 99
    max() of omega = 395.70031 at location (-0.28438808 0.001215373 0.5) in cell 5010
    max() of nut = 3.9705428e-06 at location (1.9686737 0.0004006648 0.5) in cell 99

volFieldValue maxdomain_vector write:
    maxMag() of U = 1.0002995 at location (0.01847776 0.0020572852 0.5) in cell 205

yPlus yplus_stats write:
    patch bottom y+ : min = 9.8894488, max = 38.977277, average = 37.668076

Courant Number mean: 0.14926567 max: 1.0122212
deltaT = 0.0037896809
Time = 0.0222623s

DILUPBiCGStab:  Solving for Ux, Initial residual = 0.015051072, Final residual = 3.7044312e-10, No Iterations 1
DILUPBiCGStab:  Solving for Uy, Initial residual = 0.028750341, Final residual = 3.3288639e-09, No Iterations 1
DICPCG:  Solving for p, Initial residual = 0.0049340631, Final residual = 4.8127716e-05, No Iterations 89
DICPCG:  Solving for p, Initial residual = 4.0067603e-05, Final residual = 9.4661147e-07, No Iterations 21
time step continuity errors : sum local = 4.864685e-13, global = -1.0554305e-14
DICPCG:  Solving for p, Initial residual = 0.0013955065, Final residual = 1.2006761e-05, No Iterations 86
DICPCG:  Solving for p, Initial residual = 1.1810262e-05, Final residual = 9.8165187e-07, No Iterations 14
time step continuity errors : sum local = 5.0461757e-13, global = -1.2263867e-14, cumulative = -3.4930231e-14
DILUPBiCGStab:  Solving for omega, Initial residual = 0.89630379, Final residual = 1.4726391e-20, No Iterations 3
DILUPBiCGStab:  Solving for k, Initial residual = 0.18946994, Final residual = 9.0715577e-20, No Iterations 3
ExecutionTime = 0.822235 s  ClockTime = 1 s



volFieldValue mindomain_scalar write:
    min() of p = 3.7014691e-05 at location (1.9686737 0.91041837 0.5) in cell 7479
    min() of k = 6.5474429e-05 at location (1.9686737 0.91041837 0.5) in cell 7479
    min() of omega = 99.668428 at location (0.0015663151 0.0004006648 0.5) in cell 0
    min() of nut = 1.9544272e-07 at location (-0.002447096 0.0004006648 0.5) in cell 5009

volFieldValue mindomain_vector write:
    minMag() of U = 0.97999211 at location (1.9686737 0.0004006648 0.5) in cell 99

volFieldValue maxdomain_scalar write:
    max() of p = 0.0043184898 at location (0.0015663151 0.0004006648 0.5) in cell 0
    max() of k = 0.0022190361 at location (1.9686737 0.0004006648 0.5) in cell 99
    max() of omega = 394.79715 at location (1.9686737 0.0004006648 0.5) in cell 99
    max() of nut = 5.6206993e-06 at location (1.9686737 0.0004006648 0.5) in cell 99

volFieldValue maxdomain_vector write:
    maxMag() of U = 1.0003554 at location (0.01847776 0.0020572852 0.5) in cell 205

yPlus yplus_stats write:
    patch bottom y+ : min = 8.9042791, max = 51.688508, average = 49.297828

Courant Number mean: 0.17865811 max: 1.211408
deltaT = 0.004547617
Time = 0.02681s

DILUPBiCGStab:  Solving for Ux, Initial residual = 0.016617041, Final residual = 6.7689912e-10, No Iterations 1
DILUPBiCGStab:  Solving for Uy, Initial residual = 0.030924274, Final residual = 5.4083768e-09, No Iterations 1
DICPCG:  Solving for p, Initial residual = 0.0053008286, Final residual = 4.9765099e-05, No Iterations 90
DICPCG:  Solving for p, Initial residual = 3.9183123e-05, Final residual = 9.3538809e-07, No Iterations 20
time step continuity errors : sum local = 8.6570082e-13, global = -1.7529002e-14
DICPCG:  Solving for p, Initial residual = 0.0019164991, Final residual = 1.5472098e-05, No Iterations 86
DICPCG:  Solving for p, Initial residual = 1.5150754e-05, Final residual = 9.704798e-07, No Iterations 16
time step continuity errors : sum local = 8.98642e-13, global = -2.4477823e-14, cumulative = -5.9408054e-14
DILUPBiCGStab:  Solving for omega, Initial residual = 0.79541287, Final residual = 4.7881506e-20, No Iterations 3
DILUPBiCGStab:  Solving for k, Initial residual = 0.1194728, Final residual = 9.3462792e-20, No Iterations 3
ExecutionTime = 0.856538 s  ClockTime = 1 s



volFieldValue mindomain_scalar write:
    min() of p = 4.656926e-05 at location (1.9686737 0.91041837 0.5) in cell 7479
    min() of k = 5.8726244e-05 at location (1.9686737 0.91041837 0.5) in cell 7479
    min() of omega = 99.668428 at location (0.0015663151 0.0004006648 0.5) in cell 0
    min() of nut = 1.9582638e-07 at location (-0.28438808 0.51381815 0.5) in cell 5640

volFieldValue mindomain_vector write:
    minMag() of U = 0.97311166 at location (1.9686737 0.0004006648 0.5) in cell 99

volFieldValue maxdomain_scalar write:
    max() of p = 0.0052493918 at location (0.0047470663 0.0004006648 0.5) in cell 1
    max() of k = 0.0037520771 at location (1.9686737 0.0004006648 0.5) in cell 99
    max() of omega = 523.54801 at location (1.9686737 0.0004006648 0.5) in cell 99
    max() of nut = 7.1666342e-06 at location (1.9686737 0.0004006648 0.5) in cell 99

volFieldValue maxdomain_vector write:
    maxMag() of U = 1.0004318 at location (0.022178072 0.0020572852 0.5) in cell 206

yPlus yplus_stats write:
    patch bottom y+ : min = 8.4632806, max = 67.212135, average = 63.855568

Courant Number mean: 0.21439037 max: 1.4534344
deltaT = 0.0054368159
Time = 0.0322468s

DILUPBiCGStab:  Solving for Ux, Initial residual = 0.018225588, Final residual = 1.2498587e-09, No Iterations 1
DILUPBiCGStab:  Solving for Uy, Initial residual = 0.034003939, Final residual = 8.6158502e-09, No Iterations 1
DICPCG:  Solving for p, Initial residual = 0.0061239356, Final residual = 5.2988742e-05, No Iterations 90
DICPCG:  Solving for p, Initial residual = 4.2227425e-05, Final residual = 8.8841131e-07, No Iterations 21
time step continuity errors : sum local = 1.4474035e-12, global = -3.3728253e-14
DICPCG:  Solving for p, Initial residual = 0.0023665267, Final residual = 2.1416915e-05, No Iterations 85
DICPCG:  Solving for p, Initial residual = 2.1008891e-05, Final residual = 9.1851059e-07, No Iterations 18
time step continuity errors : sum local = 1.4951808e-12, global = -5.0839528e-14, cumulative = -1.1024758e-13
DILUPBiCGStab:  Solving for omega, Initial residual = 0.68222269, Final residual = 1.429962e-19, No Iterations 3
DILUPBiCGStab:  Solving for k, Initial residual = 0.072464001, Final residual = 1.6720848e-19, No Iterations 3
ExecutionTime = 0.894535 s  ClockTime = 1 s



volFieldValue mindomain_scalar write:
    min() of p = 5.7701707e-05 at location (1.9686737 0.91041837 0.5) in cell 7479
    min() of k = 4.9162741e-05 at location (0.0047470663 0.0004006648 0.5) in cell 1
    min() of omega = 99.668428 at location (0.0015663151 0.0004006648 0.5) in cell 0
    min() of nut = 1.9591516e-07 at location (-0.28438808 0.51381815 0.5) in cell 5640

volFieldValue mindomain_vector write:
    minMag() of U = 0.96321293 at location (1.9686737 0.0004006648 0.5) in cell 99

volFieldValue maxdomain_scalar write:
    max() of p = 0.0064563226 at location (0.0080255378 0.0004006648 0.5) in cell 2
    max() of k = 0.0055171237 at location (1.9686737 0.0004006648 0.5) in cell 99
    max() of omega = 680.78535 at location (1.9686737 0.0004006648 0.5) in cell 99
    max() of nut = 8.1040575e-06 at location (1.9686737 0.0004006648 0.5) in cell 99

volFieldValue maxdomain_vector write:
    maxMag() of U = 1.0005381 at location (0.025992066 0.0020572852 0.5) in cell 207

yPlus yplus_stats write:
    patch bottom y+ : min = 7.6936046, max = 81.501983, average = 77.289056

Courant Number mean: 0.25631139 max: 1.7373181
deltaT = 0.0064949881
Time = 0.0387418s

DILUPBiCGStab:  Solving for Ux, Initial residual = 0.019003046, Final residual = 2.1839577e-09, No Iterations 1
DILUPBiCGStab:  Solving for Uy, Initial residual = 0.036434997, Final residual = 6.9504269e-12, No Iterations 2
DICPCG:  Solving for p, Initial residual = 0.0062073641, Final residual = 5.5801927e-05, No Iterations 88
DICPCG:  Solving for p, Initial residual = 4.730228e-05, Final residual = 9.7606472e-07, No Iterations 23
time step continuity errors : sum local = 2.6236234e-12, global = -6.9536928e-14
DICPCG:  Solving for p, Initial residual = 0.0023267099, Final residual = 2.2449628e-05, No Iterations 84
DICPCG:  Solving for p, Initial residual = 2.2134589e-05, Final residual = 9.5464132e-07, No Iterations 19
time step continuity errors : sum local = 2.5640257e-12, global = -9.5257593e-14, cumulative = -2.0550517e-13
DILUPBiCGStab:  Solving for omega, Initial residual = 0.58496753, Final residual = 4.1659157e-19, No Iterations 3
DILUPBiCGStab:  Solving for k, Initial residual = 0.047156995, Final residual = 5.4927542e-19, No Iterations 3
ExecutionTime = 0.931938 s  ClockTime = 1 s



volFieldValue mindomain_scalar write:
    min() of p = 6.6929386e-05 at location (1.9686737 0.91041837 0.5) in cell 7479
    min() of k = 4.3818507e-05 at location (0.0047470663 0.0004006648 0.5) in cell 1
    min() of omega = 99.668428 at location (0.0015663151 0.0004006648 0.5) in cell 0
    min() of nut = 1.9587603e-07 at location (-0.28438808 0.51381815 0.5) in cell 5640

volFieldValue mindomain_vector write:
    minMag() of U = 0.94970415 at location (1.9686737 0.0004006648 0.5) in cell 99

volFieldValue maxdomain_scalar write:
    max() of p = 0.0076247498 at location (0.011404732 0.0004006648 0.5) in cell 3
    max() of k = 0.0071361305 at location (1.9686737 0.0004006648 0.5) in cell 99
    max() of omega = 825.52587 at location (1.9686737 0.0004006648 0.5) in cell 99
    max() of nut = 8.6443451e-06 at location (1.9686737 0.0004006648 0.5) in cell 99

volFieldValue maxdomain_vector write:
    maxMag() of U = 1.0006688 at location (0.029923235 0.0020572852 0.5) in cell 208

yPlus yplus_stats write:
    patch bottom y+ : min = 7.2634108, max = 92.692204, average = 87.840586

Courant Number mean: 0.30619937 max: 2.0751223
deltaT = 0.0077520826
Time = 0.0464938s

DILUPBiCGStab:  Solving for Ux, Initial residual = 0.01868642, Final residual = 4.3828629e-09, No Iterations 1
DILUPBiCGStab:  Solving for Uy, Initial residual = 0.036945678, Final residual = 1.2488237e-11, No Iterations 2
DICPCG:  Solving for p, Initial residual = 0.0053752122, Final residual = 4.6521396e-05, No Iterations 87
DICPCG:  Solving for p, Initial residual = 4.198828e-05, Final residual = 8.2600001e-07, No Iterations 23
time step continuity errors : sum local = 3.4481089e-12, global = -9.7014279e-14
DICPCG:  Solving for p, Initial residual = 0.0022312078, Final residual = 2.1085376e-05, No Iterations 81
DICPCG:  Solving for p, Initial residual = 2.0896463e-05, Final residual = 9.7056434e-07, No Iterations 20
time step continuity errors : sum local = 4.050812e-12, global = -2.2895989e-13, cumulative = -4.3446506e-13
DILUPBiCGStab:  Solving for omega, Initial residual = 0.50320758, Final residual = 1.201492e-18, No Iterations 3
DILUPBiCGStab:  Solving for k, Initial residual = 0.0326255, Final residual = 1.3337889e-18, No Iterations 3
ExecutionTime = 0.966481 s  ClockTime = 1 s



volFieldValue mindomain_scalar write:
    min() of p = 7.2674226e-05 at location (1.9686737 0.91041837 0.5) in cell 7479
    min() of k = 2.4672174e-05 at location (0.0080255378 0.0004006648 0.5) in cell 2
    min() of omega = 99.668428 at location (0.0080255378 0.0004006648 0.5) in cell 2
    min() of nut = 1.9558169e-07 at location (-0.28438808 0.61857997 0.5) in cell 5650

volFieldValue mindomain_vector write:
    minMag() of U = 0.9324592 at location (1.9686737 0.0004006648 0.5) in cell 99

volFieldValue maxdomain_scalar write:
    max() of p = 0.0084742657 at location (0.011404732 0.0004006648 0.5) in cell 3
    max() of k = 0.0082864789 at location (1.9686737 0.0004006648 0.5) in cell 99
    max() of omega = 938.87056 at location (1.9686737 0.0004006648 0.5) in cell 99
    max() of nut = 8.8260078e-06 at location (1.9686737 0.0004006648 0.5) in cell 99

volFieldValue maxdomain_vector write:
    maxMag() of U = 1.000816 at location (0.033975179 0.0029273097 0.5) in cell 309

yPlus yplus_stats write:
    patch bottom y+ : min = 5.4502387, max = 99.884208, average = 94.685495

Courant Number mean: 0.36546671 max: 2.476685
deltaT = 0.0092573414
Time = 0.0557512s

DILUPBiCGStab:  Solving for Ux, Initial residual = 0.017645487, Final residual = 9.5184839e-12, No Iterations 2
DILUPBiCGStab:  Solving for Uy, Initial residual = 0.035906886, Final residual = 2.2871942e-11, No Iterations 2
DICPCG:  Solving for p, Initial residual = 0.005668737, Final residual = 5.24065e-05, No Iterations 85
DICPCG:  Solving for p, Initial residual = 4.9915522e-05, Final residual = 9.0344943e-07, No Iterations 24
time step continuity errors : sum local = 5.5921438e-12, global = -1.9965784e-13
DICPCG:  Solving for p, Initial residual = 0.0028617997, Final residual = 2.419395e-05, No Iterations 78
DICPCG:  Solving for p, Initial residual = 2.4076601e-05, Final residual = 9.7254382e-07, No Iterations 23
time step continuity errors : sum local = 6.0280588e-12, global = -4.0485099e-13, cumulative = -8.3931605e-13
DILUPBiCGStab:  Solving for omega, Initial residual = 0.43405894, Final residual = 3.3588222e-18, No Iterations 3
DILUPBiCGStab:  Solving for k, Initial residual = 0.023670101, Final residual = 5.3776083e-18, No Iterations 3
ExecutionTime = 1.000226 s  ClockTime = 1 s



volFieldValue mindomain_scalar write:
    min() of p = 7.4652112e-05 at location (1.9686737 0.91041837 0.5) in cell 7479
    min() of k = 2.8071315e-05 at location (0.0080255378 0.0004006648 0.5) in cell 2
    min() of omega = 99.668428 at location (0.0080255378 0.0004006648 0.5) in cell 2
    min() of nut = 1.9197787e-07 at location (0.0080255378 0.001215373 0.5) in cell 102

volFieldValue mindomain_vector write:
    minMag() of U = 0.91187578 at location (1.9686737 0.0004006648 0.5) in cell 99

volFieldValue maxdomain_scalar write:
    max() of p = 0.0089124836 at location (0.011404732 0.0004006648 0.5) in cell 3
    max() of k = 0.008834635 at location (1.9686737 0.0004006648 0.5) in cell 99
    max() of omega = 1011.7177 at location (1.9686737 0.0004006648 0.5) in cell 99
    max() of nut = 8.7410471e-06 at location (0.061039084 0.0004006648 0.5) in cell 15

volFieldValue maxdomain_vector write:
    maxMag() of U = 1.0009849 at location (0.038151608 0.0029273097 0.5) in cell 310

yPlus yplus_stats write:
    patch bottom y+ : min = 5.8135739, max = 103.13501, average = 97.852309

Courant Number mean: 0.43643556 max: 2.9575445
deltaT = 0.0099394613
Time = 0.0656906s

DILUPBiCGStab:  Solving for Ux, Initial residual = 0.014711658, Final residual = 1.5906103e-11, No Iterations 2
DILUPBiCGStab:  Solving for Uy, Initial residual = 0.030694279, Final residual = 2.9075806e-11, No Iterations 2
DICPCG:  Solving for p, Initial residual = 0.007129865, Final residual = 6.7057957e-05, No Iterations 51
DICPCG:  Solving for p, Initial residual = 6.6826464e-05, Final residual = 7.2704076e-07, No Iterations 74
time step continuity errors : sum local = 5.2915352e-12, global = 5.9406528e-14
DICPCG:  Solving for p, Initial residual = 0.0035491111, Final residual = 3.1736159e-05, No Iterations 39
DICPCG:  Solving for p, Initial residual = 3.1681957e-05, Final residual = 8.7754358e-07, No Iterations 70
time step continuity errors : sum local = 6.411508e-12, global = 9.1230924e-14, cumulative = -7.4808513e-13
DILUPBiCGStab:  Solving for omega, Initial residual = 0.35231257, Final residual = 5.1677584e-18, No Iterations 3
DILUPBiCGStab:  Solving for k, Initial residual = 0.016501749, Final residual = 5.7170103e-18, No Iterations 3
ExecutionTime = 1.034924 s  ClockTime = 1 s



volFieldValue mindomain_scalar write:
    min() of p = 7.3309465e-05 at location (1.9686737 0.91041837 0.5) in cell 7479
    min() of k = 2.0931649e-06 at location (0.011404732 0.0004006648 0.5) in cell 3
    min() of omega = 99.668428 at location (0.0080255378 0.0004006648 0.5) in cell 2
    min() of nut = 1.6123663e-08 at location (0.011404732 0.0004006648 0.5) in cell 3

volFieldValue mindomain_vector write:
    minMag() of U = 0.89098605 at location (1.9686737 0.0004006648 0.5) in cell 99

volFieldValue maxdomain_scalar write:
    max() of p = 0.0090876216 at location (0.014887743 0.0004006648 0.5) in cell 4
    max() of k = 0.0088931242 at location (0.051466646 0.0004006648 0.5) in cell 13
    max() of omega = 1044.6448 at location (1.9686737 0.0004006648 0.5) in cell 99
    max() of nut = 8.6066709e-06 at location (0.046893339 0.0004006648 0.5) in cell 12

volFieldValue maxdomain_vector write:
    maxMag() of U = 1.0011563 at location (0.046893339 0.0029273097 0.5) in cell 312

yPlus yplus_stats write:
    patch bottom y+ : min = 1.5874993, max = 103.47585, average = 98.112892

Courant Number mean: 0.46859914 max: 3.1753891
deltaT = 0.0099394613
Time = 0.0756301s

DILUPBiCGStab:  Solving for Ux, Initial residual = 0.011577624, Final residual = 1.801974e-11, No Iterations 2
DILUPBiCGStab:  Solving for Uy, Initial residual = 0.024733074, Final residual = 2.8642352e-11, No Iterations 2
DICPCG:  Solving for p, Initial residual = 0.0076391165, Final residual = 6.9759477e-05, No Iterations 77
DICPCG:  Solving for p, Initial residual = 7.1313388e-05, Final residual = 9.8526523e-07, No Iterations 34
time step continuity errors : sum local = 7.1474361e-12, global = 1.1196427e-13
DICPCG:  Solving for p, Initial residual = 0.0037970699, Final residual = 3.6071277e-05, No Iterations 65
DICPCG:  Solving for p, Initial residual = 3.6096593e-05, Final residual = 9.8111268e-07, No Iterations 33
time step continuity errors : sum local = 7.1414598e-12, global = 3.6466962e-13, cumulative = -3.834155e-13
DILUPBiCGStab:  Solving for omega, Initial residual = 0.27664133, Final residual = 5.6766955e-18, No Iterations 3
DILUPBiCGStab:  Solving for k, Initial residual = 0.01347793, Final residual = 2.0925628e-18, No Iterations 3
ExecutionTime = 1.070428 s  ClockTime = 1 s



volFieldValue mindomain_scalar write:
    min() of p = 7.0135589e-05 at location (1.9686737 0.91041837 0.5) in cell 7479
    min() of k = 5.3656777e-06 at location (0.011404732 0.0004006648 0.5) in cell 3
    min() of omega = 99.668428 at location (0.0080255378 0.0004006648 0.5) in cell 2
    min() of nut = 5.383528e-08 at location (0.011404732 0.0004006648 0.5) in cell 3

volFieldValue mindomain_vector write:
    minMag() of U = 0.87201598 at location (1.9686737 0.0004006648 0.5) in cell 99

volFieldValue maxdomain_scalar write:
    max() of p = 0.0090382873 at location (0.014887743 0.0004006648 0.5) in cell 4
    max() of k = 0.0088877661 at location (0.046893339 0.0004006648 0.5) in cell 12
    max() of omega = 1048.0971 at location (0.051466646 0.0004006648 0.5) in cell 13
    max() of nut = 8.4853558e-06 at location (0.046893339 0.0004006648 0.5) in cell 12

volFieldValue maxdomain_vector write:
    maxMag() of U = 1.0013027 at location (0.051466646 0.0029273097 0.5) in cell 313

yPlus yplus_stats write:
    patch bottom y+ : min = 2.5416989, max = 103.44467, average = 97.024076

Courant Number mean: 0.46860423 max: 3.1753124
deltaT = 0.0099394613
Time = 0.0855696s

DILUPBiCGStab:  Solving for Ux, Initial residual = 0.0093518825, Final residual = 1.9087919e-11, No Iterations 2
DILUPBiCGStab:  Solving for Uy, Initial residual = 0.020329971, Final residual = 2.8532924e-11, No Iterations 2
DICPCG:  Solving for p, Initial residual = 0.0075888288, Final residual = 7.3176358e-05, No Iterations 80
DICPCG:  Solving for p, Initial residual = 7.5472427e-05, Final residual = 9.5213192e-07, No Iterations 39
time step continuity errors : sum local = 6.7657506e-12, global = 3.988131e-13
DICPCG:  Solving for p, Initial residual = 0.0036664423, Final residual = 3.1301983e-05, No Iterations 66
DICPCG:  Solving for p, Initial residual = 3.1341006e-05, Final residual = 9.775351e-07, No Iterations 30
time step continuity errors : sum local = 6.9734921e-12, global = 3.777384e-13, cumulative = -5.6771025e-15
DILUPBiCGStab:  Solving for omega, Initial residual = 0.22184748, Final residual = 1.5100703e-17, No Iterations 3
DILUPBiCGStab:  Solving for k, Initial residual = 0.011430853, Final residual = 4.0309449e-18, No Iterations 3
ExecutionTime = 1.103252 s  ClockTime = 1 s



volFieldValue mindomain_scalar write:
    min() of p = 6.6862412e-05 at location (1.9686737 0.91041837 0.5) in cell 7479
    min() of k = 2.0301595e-05 at location (0.011404732 0.0004006648 0.5) in cell 3
    min() of omega = 99.668428 at location (0.0080255378 0.0004006648 0.5) in cell 2
    min() of nut = 1.6399463e-07 at location (0.011404732 0.001215373 0.5) in cell 103

volFieldValue mindomain_vector write:
    minMag() of U = 0.85502806 at location (1.9686737 0.0004006648 0.5) in cell 99

volFieldValue maxdomain_scalar write:
    max() of p = 0.0088703254 at location (0.014887743 0.0004006648 0.5) in cell 4
    max() of k = 0.0088024403 at location (0.046893339 0.0004006648 0.5) in cell 12
    max() of omega = 1047.7813 at location (0.046893339 0.0004006648 0.5) in cell 12
    max() of nut = 8.4097916e-06 at location (0.042456348 0.0004006648 0.5) in cell 11

volFieldValue maxdomain_vector write:
    maxMag() of U = 1.0014193 at location (0.056180455 0.0029273097 0.5) in cell 314

yPlus yplus_stats write:
    patch bottom y+ : min = 4.9439822, max = 102.94692, average = 95.427984

Courant Number mean: 0.46860917 max: 3.1752327
deltaT = 0.0099394613
Time = 0.095509s

DILUPBiCGStab:  Solving for Ux, Initial residual = 0.0077508818, Final residual = 1.6686781e-11, No Iterations 2
DILUPBiCGStab:  Solving for Uy, Initial residual = 0.017043454, Final residual = 2.7534799e-11, No Iterations 2
DICPCG:  Solving for p, Initial residual = 0.0075313701, Final residual = 6.7932823e-05, No Iterations 80
DICPCG:  Solving for p, Initial residual = 7.0175822e-05, Final residual = 9.9372161e-07, No Iterations 32
time step continuity errors : sum local = 6.9140072e-12, global = 4.0420204e-13
DICPCG:  Solving for p, Initial residual = 0.0036865843, Final residual = 3.3710052e-05, No Iterations 65
DICPCG:  Solving for p, Initial residual = 3.3749708e-05, Final residual = 9.1284444e-07, No Iterations 30
time step continuity errors : sum local = 6.3780737e-12, global = 4.5220262e-13, cumulative = 4.4652552e-13
DILUPBiCGStab:  Solving for omega, Initial residual = 0.18127478, Final residual = 7.8227997e-17, No Iterations 3
DILUPBiCGStab:  Solving for k, Initial residual = 0.0096705002, Final residual = 3.3236046e-18, No Iterations 3
ExecutionTime = 1.135405 s  ClockTime = 1 s



volFieldValue mindomain_scalar write:
    min() of p = 6.4001246e-05 at location (1.9686737 0.91041837 0.5) in cell 7479
    min() of k = 2.1919905e-05 at location (0.011404732 0.001215373 0.5) in cell 103
    min() of omega = 99.668428 at location (0.0080255378 0.0004006648 0.5) in cell 2
    min() of nut = 1.7738625e-07 at location (0.011404732 0.001215373 0.5) in cell 103

volFieldValue mindomain_vector write:
    minMag() of U = 0.83965242 at location (1.9686737 0.0004006648 0.5) in cell 99

volFieldValue maxdomain_scalar write:
    max() of p = 0.0086435211 at location (0.014887743 0.0004006648 0.5) in cell 4
    max() of k = 0.0087225424 at location (0.042456348 0.0004006648 0.5) in cell 11
    max() of omega = 1042.7396 at location (0.046893339 0.0004006648 0.5) in cell 12
    max() of nut = 8.3652722e-06 at location (0.042456348 0.0004006648 0.5) in cell 11

volFieldValue maxdomain_vector write:
    maxMag() of U = 1.0015117 at location (0.061039084 0.0029273097 0.5) in cell 315

yPlus yplus_stats write:
    patch bottom y+ : min = 5.4313732, max = 102.47864, average = 93.758228

Courant Number mean: 0.46861395 max: 3.175143
deltaT = 0.0099394613
Time = 0.105448s

DILUPBiCGStab:  Solving for Ux, Initial residual = 0.0065765904, Final residual = 1.1934981e-11, No Iterations 2
DILUPBiCGStab:  Solving for Uy, Initial residual = 0.014598866, Final residual = 2.5711639e-11, No Iterations 2
DICPCG:  Solving for p, Initial residual = 0.0078525179, Final residual = 6.9277493e-05, No Iterations 79
DICPCG:  Solving for p, Initial residual = 7.1368686e-05, Final residual = 9.6676715e-07, No Iterations 36
time step continuity errors : sum local = 6.6060115e-12, global = 4.5754326e-13
DICPCG:  Solving for p, Initial residual = 0.0045919927, Final residual = 4.0497951e-05, No Iterations 66
DICPCG:  Solving for p, Initial residual = 4.0513577e-05, Final residual = 9.6857524e-07, No Iterations 43
time step continuity errors : sum local = 6.6523026e-12, global = 9.5873703e-13, cumulative = 1.4052626e-12
DILUPBiCGStab:  Solving for omega, Initial residual = 0.14955992, Final residual = 3.5924513e-16, No Iterations 3
DILUPBiCGStab:  Solving for k, Initial residual = 0.0081238737, Final residual = 3.0640466e-18, No Iterations 3
ExecutionTime = 1.175196 s  ClockTime = 1 s



volFieldValue mindomain_scalar write:
    min() of p = 6.1451872e-05 at location (1.9686737 0.91041837 0.5) in cell 7479
    min() of k = 1.3292252e-05 at location (0.014887743 0.0004006648 0.5) in cell 4
    min() of omega = 99.668428 at location (0.0080255378 0.0004006648 0.5) in cell 2
    min() of nut = 8.3304385e-08 at location (0.014887743 0.0004006648 0.5) in cell 4

volFieldValue mindomain_vector write:
    minMag() of U = 0.8254638 at location (1.9686737 0.0004006648 0.5) in cell 99

volFieldValue maxdomain_scalar write:
    max() of p = 0.0084548615 at location (0.01847776 0.0004006648 0.5) in cell 5
    max() of k = 0.0086581505 at location (0.042456348 0.0004006648 0.5) in cell 11
    max() of omega = 1037.9965 at location (0.042456348 0.0004006648 0.5) in cell 11
    max() of nut = 8.3412139e-06 at location (0.042456348 0.0004006648 0.5) in cell 11

volFieldValue maxdomain_vector write:
    maxMag() of U = 1.0016055 at location (0.066046982 0.0038263852 0.5) in cell 416

yPlus yplus_stats write:
    patch bottom y+ : min = 4.0004708, max = 102.09968, average = 92.210549

Courant Number mean: 0.46861858 max: 3.1750365
deltaT = 0.0099394613
Time = 0.115388s

DILUPBiCGStab:  Solving for Ux, Initial residual = 0.0056942821, Final residual = 9.0612915e-12, No Iterations 2
DILUPBiCGStab:  Solving for Uy, Initial residual = 0.012760892, Final residual = 2.3516592e-11, No Iterations 2
DICPCG:  Solving for p, Initial residual = 0.0077015336, Final residual = 7.6089833e-05, No Iterations 76
DICPCG:  Solving for p, Initial residual = 7.8182077e-05, Final residual = 9.7536006e-07, No Iterations 43
time step continuity errors : sum local = 6.5585123e-12, global = 4.1280448e-13
DICPCG:  Solving for p, Initial residual = 0.0040427039, Final residual = 3.8463787e-05, No Iterations 73
DICPCG:  Solving for p, Initial residual = 3.8509459e-05, Final residual = 9.6942447e-07, No Iterations 35
time step continuity errors : sum local = 6.5380741e-12, global = 5.3945042e-13, cumulative = 1.944713e-12
DILUPBiCGStab:  Solving for omega, Initial residual = 0.12455584, Final residual = 2.4939287e-16, No Iterations 3
DILUPBiCGStab:  Solving for k, Initial residual = 0.0068308793, Final residual = 2.6704146e-18, No Iterations 3
bounding k, min: -1.8680761e-06 max: 0.0086132582 average: 0.0001489729
ExecutionTime = 1.2196 s  ClockTime = 1 s



volFieldValue mindomain_scalar write:
    min() of p = 5.9185128e-05 at location (1.9686737 0.91041837 0.5) in cell 7479
    min() of k = 1.5843714e-05 at location (0.014887743 0.001215373 0.5) in cell 104
    min() of omega = 97.681355 at location (1.9686737 0.91041837 0.5) in cell 7479
    min() of nut = 1.5129751e-07 at location (0.014887743 0.001215373 0.5) in cell 104

volFieldValue mindomain_vector write:
    minMag() of U = 0.81215663 at location (1.9686737 0.0004006648 0.5) in cell 99

volFieldValue maxdomain_scalar write:
    max() of p = 0.0083334842 at location (0.01847776 0.0004006648 0.5) in cell 5
    max() of k = 0.0086132582 at location (0.042456348 0.0004006648 0.5) in cell 11
    max() of omega = 1034.158 at location (0.042456348 0.0004006648 0.5) in cell 11
    max() of nut = 8.3287643e-06 at location (0.042456348 0.0004006648 0.5) in cell 11

volFieldValue maxdomain_vector write:
    maxMag() of U = 1.0016939 at location (0.071208734 0.0038263852 0.5) in cell 417

yPlus yplus_stats write:
    patch bottom y+ : min = 5.0130991, max = 101.83464, average = 90.994834

Courant Number mean: 0.46862306 max: 3.1749278
deltaT = 0.0099394613
Time = 0.125327s

DILUPBiCGStab:  Solving for Ux, Initial residual = 0.0050136382, Final residual = 1.5401056e-11, No Iterations 2
DILUPBiCGStab:  Solving for Uy, Initial residual = 0.011342396, Final residual = 9.6146881e-09, No Iterations 1
DICPCG:  Solving for p, Initial residual = 0.0070469827, Final residual = 6.6323659e-05, No Iterations 75
DICPCG:  Solving for p, Initial residual = 6.8035465e-05, Final residual = 9.4591809e-07, No Iterations 38
time step continuity errors : sum local = 6.2469896e-12, global = 5.2524874e-13
DICPCG:  Solving for p, Initial residual = 0.0034755218, Final residual = 2.701663e-05, No Iterations 74
DICPCG:  Solving for p, Initial residual = 2.7053104e-05, Final residual = 9.5220619e-07, No Iterations 31
time step continuity errors : sum local = 6.303141e-12, global = 4.0268616e-13, cumulative = 2.3473991e-12
DILUPBiCGStab:  Solving for omega, Initial residual = 0.10567551, Final residual = 1.417884e-17, No Iterations 3
DILUPBiCGStab:  Solving for k, Initial residual = 0.005910159, Final residual = 2.2871587e-18, No Iterations 3
ExecutionTime = 1.249906 s  ClockTime = 1 s



volFieldValue mindomain_scalar write:
    min() of p = 5.7174569e-05 at location (1.9686737 0.91041837 0.5) in cell 7479
    min() of k = 1.7277134e-05 at location (0.014887743 0.001215373 0.5) in cell 104
    min() of omega = 91.092198 at location (1.9686737 0.91041837 0.5) in cell 7479
    min() of nut = 1.7390148e-07 at location (0.014887743 0.0004006648 0.5) in cell 4

volFieldValue mindomain_vector write:
    minMag() of U = 0.79949148 at location (1.9686737 0.0004006648 0.5) in cell 99

volFieldValue maxdomain_scalar write:
    max() of p = 0.0082002448 at location (0.01847776 0.0004006648 0.5) in cell 5
    max() of k = 0.0085798407 at location (0.042456348 0.0004006648 0.5) in cell 11
    max() of omega = 1031.4735 at location (0.042456348 0.0004006648 0.5) in cell 11
    max() of nut = 8.3212892e-06 at location (0.046893339 0.0004006648 0.5) in cell 12

volFieldValue maxdomain_vector write:
    maxMag() of U = 1.0017726 at location (0.076529068 0.0038263852 0.5) in cell 418

yPlus yplus_stats write:
    patch bottom y+ : min = 4.56817, max = 101.6369, average = 89.806293

Courant Number mean: 0.46862741 max: 3.1748277
deltaT = 0.0099394613
Time = 0.135267s

DILUPBiCGStab:  Solving for Ux, Initial residual = 0.0044743453, Final residual = 3.4255539e-11, No Iterations 2
DILUPBiCGStab:  Solving for Uy, Initial residual = 0.010215197, Final residual = 8.3465162e-09, No Iterations 1
DICPCG:  Solving for p, Initial residual = 0.0056857588, Final residual = 5.3017531e-05, No Iterations 78
DICPCG:  Solving for p, Initial residual = 5.428964e-05, Final residual = 9.4900321e-07, No Iterations 35
time step continuity errors : sum local = 6.1611959e-12, global = 2.2686427e-13
DICPCG:  Solving for p, Initial residual = 0.0028575483, Final residual = 2.5573906e-05, No Iterations 74
DICPCG:  Solving for p, Initial residual = 2.5602186e-05, Final residual = 9.7105805e-07, No Iterations 33
time step continuity errors : sum local = 6.319414e-12, global = 3.3064669e-13, cumulative = 2.6780458e-12
DILUPBiCGStab:  Solving for omega, Initial residual = 0.091423598, Final residual = 3.8437507e-18, No Iterations 3
DILUPBiCGStab:  Solving for k, Initial residual = 0.0053048376, Final residual = 1.9312958e-18, No Iterations 3
ExecutionTime = 1.282375 s  ClockTime = 1 s



volFieldValue mindomain_scalar write:
    min() of p = 5.5336087e-05 at location (1.9686737 0.91041837 0.5) in cell 7479
    min() of k = 1.3952396e-05 at location (0.014887743 0.0004006648 0.5) in cell 4
    min() of omega = 85.366985 at location (1.9686737 0.91041837 0.5) in cell 7479
    min() of nut = 1.3998812e-07 at location (0.014887743 0.0004006648 0.5) in cell 4

volFieldValue mindomain_vector write:
    minMag() of U = 0.78748336 at location (1.9686737 0.0004006648 0.5) in cell 99

volFieldValue maxdomain_scalar write:
    max() of p = 0.0080533706 at location (0.01847776 0.0004006648 0.5) in cell 5
    max() of k = 0.0085631868 at location (0.046893339 0.0004006648 0.5) in cell 12
    max() of omega = 1029.4706 at location (0.042456348 0.0004006648 0.5) in cell 11
    max() of nut = 8.319845e-06 at location (0.046893339 0.0004006648 0.5) in cell 12

volFieldValue maxdomain_vector write:
    maxMag() of U = 1.0018425 at location (0.082012856 0.0038263852 0.5) in cell 419

yPlus yplus_stats write:
    patch bottom y+ : min = 4.0986064, max = 101.53822, average = 88.679325

Courant Number mean: 0.46863165 max: 3.1747353
deltaT = 0.0099394613
Time = 0.145206s

[...]
DICPCG:  Solving for p, Initial residual = 1.7148877e-07, Final residual = 1.0536401e-07, No Iterations 1
time step continuity errors : sum local = 6.8328493e-13, global = 5.2413566e-13, cumulative = 6.0804161e-11
DILUPBiCGStab:  Solving for omega, Initial residual = 5.1125092e-09, Final residual = 1.7798653e-19, No Iterations 3
DILUPBiCGStab:  Solving for k, Initial residual = 1.1671742e-06, Final residual = 1.7772892e-18, No Iterations 3
ExecutionTime = 25.483555 s  ClockTime = 25 s



volFieldValue mindomain_scalar write:
    min() of p = -0.00047020618 at location (1.9686737 0.0004006648 0.5) in cell 99
    min() of k = 1.2450912e-07 at location (1.5234735 0.91041837 0.5) in cell 7471
    min() of omega = 4.8591111 at location (1.9686737 0.91041837 0.5) in cell 7479
    min() of nut = 1.1078501e-09 at location (0.046893339 0.0004006648 0.5) in cell 12

volFieldValue mindomain_vector write:
    minMag() of U = 0.5490713 at location (1.9686737 0.0004006648 0.5) in cell 99

volFieldValue maxdomain_scalar write:
    max() of p = 0.0068388692 at location (0.056180455 0.0004006648 0.5) in cell 14
    max() of k = 0.0082635845 at location (0.087665118 0.0004006648 0.5) in cell 20
    max() of omega = 1010.3191 at location (0.087665118 0.0004006648 0.5) in cell 20
    max() of nut = 7.7417292e-05 at location (1.9686737 0.0098875613 0.5) in cell 1099

volFieldValue maxdomain_vector write:
    maxMag() of U = 1.0036493 at location (1.9686737 0.086548926 0.5) in cell 4699

yPlus yplus_stats write:
    patch bottom y+ : min = 0.53129479, max = 99.74613, average = 68.180665

Courant Number mean: 0.4721924 max: 3.1928825
deltaT = 0.01
Time = 9.93s

DILUPBiCGStab:  Solving for Ux, Initial residual = 1.0311623e-08, Final residual = 7.1847036e-11, No Iterations 1
DILUPBiCGStab:  Solving for Uy, Initial residual = 4.9913363e-08, Final residual = 2.1229449e-11, No Iterations 1
DICPCG:  Solving for p, Initial residual = 7.8983818e-07, Final residual = 1.1940631e-07, No Iterations 2
DICPCG:  Solving for p, Initial residual = 1.1940629e-07, Final residual = 2.2044543e-07, No Iterations 2
time step continuity errors : sum local = 1.4295935e-12, global = 4.3050572e-13
DICPCG:  Solving for p, Initial residual = 3.8361749e-07, Final residual = 1.5324531e-07, No Iterations 2
DICPCG:  Solving for p, Initial residual = 1.5324529e-07, Final residual = 9.0985012e-08, No Iterations 1
time step continuity errors : sum local = 5.9003807e-13, global = 4.5402103e-13, cumulative = 6.1258182e-11
DILUPBiCGStab:  Solving for omega, Initial residual = 5.0893582e-09, Final residual = 1.7719209e-19, No Iterations 3
DILUPBiCGStab:  Solving for k, Initial residual = 1.1618706e-06, Final residual = 1.7698898e-18, No Iterations 3
ExecutionTime = 25.505862 s  ClockTime = 25 s



volFieldValue mindomain_scalar write:
    min() of p = -0.00047020628 at location (1.9686737 0.0004006648 0.5) in cell 99
    min() of k = 1.2395038e-07 at location (1.5234735 0.91041837 0.5) in cell 7471
    min() of omega = 4.8591111 at location (1.9686737 0.91041837 0.5) in cell 7479
    min() of nut = 1.1029551e-09 at location (0.046893339 0.0004006648 0.5) in cell 12

volFieldValue mindomain_vector write:
    minMag() of U = 0.54907128 at location (1.9686737 0.0004006648 0.5) in cell 99

volFieldValue maxdomain_scalar write:
    max() of p = 0.0068388686 at location (0.056180455 0.0004006648 0.5) in cell 14
    max() of k = 0.0082635839 at location (0.087665118 0.0004006648 0.5) in cell 20
    max() of omega = 1010.3191 at location (0.087665118 0.0004006648 0.5) in cell 20
    max() of nut = 7.7417279e-05 at location (1.9686737 0.0098875613 0.5) in cell 1099

volFieldValue maxdomain_vector write:
    maxMag() of U = 1.0036493 at location (1.9686737 0.086548926 0.5) in cell 4699

yPlus yplus_stats write:
    patch bottom y+ : min = 0.53012099, max = 99.746126, average = 68.180496

Courant Number mean: 0.4721924 max: 3.1928825
deltaT = 0.01
Time = 9.94s

DILUPBiCGStab:  Solving for Ux, Initial residual = 1.0212853e-08, Final residual = 7.1422618e-11, No Iterations 1
DILUPBiCGStab:  Solving for Uy, Initial residual = 4.9142137e-08, Final residual = 2.1306609e-11, No Iterations 1
DICPCG:  Solving for p, Initial residual = 7.3835295e-07, Final residual = 1.07127e-07, No Iterations 2
DICPCG:  Solving for p, Initial residual = 1.0712698e-07, Final residual = 2.0230511e-07, No Iterations 2
time step continuity errors : sum local = 1.3119517e-12, global = 3.983205e-13
DICPCG:  Solving for p, Initial residual = 3.5757068e-07, Final residual = 1.3369326e-07, No Iterations 2
DICPCG:  Solving for p, Initial residual = 1.3369325e-07, Final residual = 7.7618441e-08, No Iterations 1
time step continuity errors : sum local = 5.0335657e-13, global = 4.0078253e-13, cumulative = 6.1658964e-11
DILUPBiCGStab:  Solving for omega, Initial residual = 5.0663502e-09, Final residual = 1.7639657e-19, No Iterations 3
DILUPBiCGStab:  Solving for k, Initial residual = 1.1565912e-06, Final residual = 1.762607e-18, No Iterations 3
ExecutionTime = 25.536961 s  ClockTime = 25 s



volFieldValue mindomain_scalar write:
    min() of p = -0.00047020626 at location (1.9686737 0.0004006648 0.5) in cell 99
    min() of k = 1.2339419e-07 at location (1.5234735 0.91041837 0.5) in cell 7471
    min() of omega = 4.859111 at location (1.9686737 0.91041837 0.5) in cell 7479
    min() of nut = 1.0980823e-09 at location (0.046893339 0.0004006648 0.5) in cell 12

volFieldValue mindomain_vector write:
    minMag() of U = 0.54907127 at location (1.9686737 0.0004006648 0.5) in cell 99

volFieldValue maxdomain_scalar write:
    max() of p = 0.006838868 at location (0.056180455 0.0004006648 0.5) in cell 14
    max() of k = 0.0082635834 at location (0.087665118 0.0004006648 0.5) in cell 20
    max() of omega = 1010.3191 at location (0.087665118 0.0004006648 0.5) in cell 20
    max() of nut = 7.7417267e-05 at location (1.9686737 0.0098875613 0.5) in cell 1099

volFieldValue maxdomain_vector write:
    maxMag() of U = 1.0036493 at location (1.9686737 0.086548926 0.5) in cell 4699

yPlus yplus_stats write:
    patch bottom y+ : min = 0.52894994, max = 99.746123, average = 68.180327

Courant Number mean: 0.4721924 max: 3.1928825
deltaT = 0.01
Time = 9.95s

DILUPBiCGStab:  Solving for Ux, Initial residual = 1.0118825e-08, Final residual = 7.1013281e-11, No Iterations 1
DILUPBiCGStab:  Solving for Uy, Initial residual = 4.8173091e-08, Final residual = 2.1390794e-11, No Iterations 1
DICPCG:  Solving for p, Initial residual = 7.0294969e-07, Final residual = 9.4777079e-08, No Iterations 2
DICPCG:  Solving for p, Initial residual = 9.4777054e-08, Final residual = 1.8205513e-07, No Iterations 2
time step continuity errors : sum local = 1.1806309e-12, global = 3.1854436e-13
DICPCG:  Solving for p, Initial residual = 3.3581032e-07, Final residual = 1.1463428e-07, No Iterations 2
DICPCG:  Solving for p, Initial residual = 1.1463427e-07, Final residual = 6.4737302e-08, No Iterations 1
time step continuity errors : sum local = 4.1982318e-13, global = 3.3642125e-13, cumulative = 6.1995385e-11
DILUPBiCGStab:  Solving for omega, Initial residual = 5.0434645e-09, Final residual = 1.756038e-19, No Iterations 3
DILUPBiCGStab:  Solving for k, Initial residual = 1.1513359e-06, Final residual = 1.7554121e-18, No Iterations 3
ExecutionTime = 25.564053 s  ClockTime = 25 s



volFieldValue mindomain_scalar write:
    min() of p = -0.0004702061 at location (1.9686737 0.0004006648 0.5) in cell 99
    min() of k = 1.2284052e-07 at location (1.5234735 0.91041837 0.5) in cell 7471
    min() of omega = 4.859111 at location (1.9686737 0.91041837 0.5) in cell 7479
    min() of nut = 1.0932316e-09 at location (0.046893339 0.0004006648 0.5) in cell 12

volFieldValue mindomain_vector write:
    minMag() of U = 0.54907125 at location (1.9686737 0.0004006648 0.5) in cell 99

volFieldValue maxdomain_scalar write:
    max() of p = 0.0068388674 at location (0.056180455 0.0004006648 0.5) in cell 14
    max() of k = 0.0082635828 at location (0.087665118 0.0004006648 0.5) in cell 20
    max() of omega = 1010.319 at location (0.087665118 0.0004006648 0.5) in cell 20
    max() of nut = 7.7417254e-05 at location (1.9686737 0.0098875613 0.5) in cell 1099

volFieldValue maxdomain_vector write:
    maxMag() of U = 1.0036493 at location (1.9686737 0.086548926 0.5) in cell 4699

yPlus yplus_stats write:
    patch bottom y+ : min = 0.52778163, max = 99.74612, average = 68.180159

Courant Number mean: 0.4721924 max: 3.1928825
deltaT = 0.01
Time = 9.96s

DILUPBiCGStab:  Solving for Ux, Initial residual = 1.0024206e-08, Final residual = 7.0583026e-11, No Iterations 1
DILUPBiCGStab:  Solving for Uy, Initial residual = 4.7466173e-08, Final residual = 2.1550172e-11, No Iterations 1
DICPCG:  Solving for p, Initial residual = 6.6936925e-07, Final residual = 7.9812888e-08, No Iterations 2
DICPCG:  Solving for p, Initial residual = 7.9812872e-08, Final residual = 1.7104055e-07, No Iterations 2
time step continuity errors : sum local = 1.1092014e-12, global = 2.8098506e-13
DICPCG:  Solving for p, Initial residual = 3.2215273e-07, Final residual = 9.679812e-08, No Iterations 2
DICPCG:  Solving for p, Initial residual = 9.6798106e-08, Final residual = 5.4355354e-08, No Iterations 1
time step continuity errors : sum local = 3.524949e-13, global = 2.8208841e-13, cumulative = 6.2277474e-11
DILUPBiCGStab:  Solving for omega, Initial residual = 5.0206935e-09, Final residual = 1.7481033e-19, No Iterations 3
DILUPBiCGStab:  Solving for k, Initial residual = 1.1461044e-06, Final residual = 1.7483124e-18, No Iterations 3
ExecutionTime = 25.592264 s  ClockTime = 26 s



volFieldValue mindomain_scalar write:
    min() of p = -0.00047020582 at location (1.9686737 0.0004006648 0.5) in cell 99
    min() of k = 1.2228937e-07 at location (1.5234735 0.91041837 0.5) in cell 7471
    min() of omega = 4.859111 at location (1.9686737 0.91041837 0.5) in cell 7479
    min() of nut = 1.088403e-09 at location (0.046893339 0.0004006648 0.5) in cell 12

volFieldValue mindomain_vector write:
    minMag() of U = 0.54907124 at location (1.9686737 0.0004006648 0.5) in cell 99

volFieldValue maxdomain_scalar write:
    max() of p = 0.0068388668 at location (0.056180455 0.0004006648 0.5) in cell 14
    max() of k = 0.0082635823 at location (0.087665118 0.0004006648 0.5) in cell 20
    max() of omega = 1010.319 at location (0.087665118 0.0004006648 0.5) in cell 20
    max() of nut = 7.7417242e-05 at location (1.9686737 0.0098875613 0.5) in cell 1099

volFieldValue maxdomain_vector write:
    maxMag() of U = 1.0036493 at location (1.9686737 0.086548926 0.5) in cell 4699

yPlus yplus_stats write:
    patch bottom y+ : min = 0.52661605, max = 99.746117, average = 68.179991

Courant Number mean: 0.4721924 max: 3.1928825
deltaT = 0.01
Time = 9.97s

DILUPBiCGStab:  Solving for Ux, Initial residual = 9.9310081e-09, Final residual = 7.0155397e-11, No Iterations 1
DILUPBiCGStab:  Solving for Uy, Initial residual = 4.6631849e-08, Final residual = 2.1654495e-11, No Iterations 1
DICPCG:  Solving for p, Initial residual = 6.4284865e-07, Final residual = 6.827624e-08, No Iterations 2
DICPCG:  Solving for p, Initial residual = 6.8276224e-08, Final residual = 1.4179148e-07, No Iterations 2
time step continuity errors : sum local = 9.1952142e-13, global = 2.0748149e-13
DICPCG:  Solving for p, Initial residual = 2.9691021e-07, Final residual = 8.0037332e-08, No Iterations 2
DICPCG:  Solving for p, Initial residual = 8.003732e-08, Final residual = 4.6441849e-08, No Iterations 1
time step continuity errors : sum local = 3.0117736e-13, global = 2.1945952e-13, cumulative = 6.2496933e-11
DILUPBiCGStab:  Solving for omega, Initial residual = 4.9980238e-09, Final residual = 1.7402166e-19, No Iterations 3
DILUPBiCGStab:  Solving for k, Initial residual = 1.1408968e-06, Final residual = 1.7412785e-18, No Iterations 3
ExecutionTime = 25.612489 s  ClockTime = 26 s



volFieldValue mindomain_scalar write:
    min() of p = -0.00047020543 at location (1.9686737 0.0004006648 0.5) in cell 99
    min() of k = 1.2174072e-07 at location (1.5234735 0.91041837 0.5) in cell 7471
    min() of omega = 4.859111 at location (1.9686737 0.91041837 0.5) in cell 7479
    min() of nut = 1.0835964e-09 at location (0.046893339 0.0004006648 0.5) in cell 12

volFieldValue mindomain_vector write:
    minMag() of U = 0.54907123 at location (1.9686737 0.0004006648 0.5) in cell 99

volFieldValue maxdomain_scalar write:
    max() of p = 0.0068388664 at location (0.056180455 0.0004006648 0.5) in cell 14
    max() of k = 0.0082635818 at location (0.087665118 0.0004006648 0.5) in cell 20
    max() of omega = 1010.319 at location (0.087665118 0.0004006648 0.5) in cell 20
    max() of nut = 7.7417229e-05 at location (1.9686737 0.0098875613 0.5) in cell 1099

volFieldValue maxdomain_vector write:
    maxMag() of U = 1.0036493 at location (1.9686737 0.086548926 0.5) in cell 4699

yPlus yplus_stats write:
    patch bottom y+ : min = 0.5254532, max = 99.746113, average = 68.179823

Courant Number mean: 0.4721924 max: 3.1928825
deltaT = 0.01
Time = 9.98s

DILUPBiCGStab:  Solving for Ux, Initial residual = 9.832769e-09, Final residual = 6.9695302e-11, No Iterations 1
DILUPBiCGStab:  Solving for Uy, Initial residual = 4.5902664e-08, Final residual = 2.1733889e-11, No Iterations 1
DICPCG:  Solving for p, Initial residual = 6.1606054e-07, Final residual = 5.9552692e-08, No Iterations 2
DICPCG:  Solving for p, Initial residual = 5.9552677e-08, Final residual = 1.2613679e-07, No Iterations 2
time step continuity errors : sum local = 8.1800069e-13, global = 1.6541727e-13
DICPCG:  Solving for p, Initial residual = 2.8095351e-07, Final residual = 6.7558685e-08, No Iterations 2
DICPCG:  Solving for p, Initial residual = 6.7558673e-08, Final residual = 4.1339091e-08, No Iterations 1
time step continuity errors : sum local = 2.6808509e-13, global = 1.6399252e-13, cumulative = 6.2660926e-11
DILUPBiCGStab:  Solving for omega, Initial residual = 4.9754582e-09, Final residual = 1.7323594e-19, No Iterations 3
DILUPBiCGStab:  Solving for k, Initial residual = 1.1357128e-06, Final residual = 1.7343155e-18, No Iterations 3
ExecutionTime = 25.634846 s  ClockTime = 26 s



volFieldValue mindomain_scalar write:
    min() of p = -0.00047020497 at location (1.9686737 0.0004006648 0.5) in cell 99
    min() of k = 1.2119456e-07 at location (1.5234735 0.91041837 0.5) in cell 7471
    min() of omega = 4.859111 at location (1.9686737 0.91041837 0.5) in cell 7479
    min() of nut = 1.0788116e-09 at location (0.046893339 0.0004006648 0.5) in cell 12

volFieldValue mindomain_vector write:
    minMag() of U = 0.54907121 at location (1.9686737 0.0004006648 0.5) in cell 99

volFieldValue maxdomain_scalar write:
    max() of p = 0.0068388659 at location (0.056180455 0.0004006648 0.5) in cell 14
    max() of k = 0.0082635812 at location (0.087665118 0.0004006648 0.5) in cell 20
    max() of omega = 1010.3189 at location (0.087665118 0.0004006648 0.5) in cell 20
    max() of nut = 7.7417217e-05 at location (1.9686737 0.0098875613 0.5) in cell 1099

volFieldValue maxdomain_vector write:
    maxMag() of U = 1.0036493 at location (1.9686737 0.086548926 0.5) in cell 4699

yPlus yplus_stats write:
    patch bottom y+ : min = 0.52429307, max = 99.74611, average = 68.179656

Courant Number mean: 0.4721924 max: 3.1928825
deltaT = 0.01
Time = 9.99s

DILUPBiCGStab:  Solving for Ux, Initial residual = 9.7337735e-09, Final residual = 6.9229694e-11, No Iterations 1
DILUPBiCGStab:  Solving for Uy, Initial residual = 4.4977791e-08, Final residual = 2.1729867e-11, No Iterations 1
DICPCG:  Solving for p, Initial residual = 5.8989963e-07, Final residual = 5.21772e-08, No Iterations 2
DICPCG:  Solving for p, Initial residual = 5.2177192e-08, Final residual = 1.0531735e-07, No Iterations 2
time step continuity errors : sum local = 6.8298671e-13, global = 9.5845169e-14
DICPCG:  Solving for p, Initial residual = 2.6124024e-07, Final residual = 5.7498641e-08, No Iterations 2
DICPCG:  Solving for p, Initial residual = 5.7498637e-08, Final residual = 3.8586668e-08, No Iterations 1
time step continuity errors : sum local = 2.5023609e-13, global = 1.0242076e-13, cumulative = 6.2763347e-11
DILUPBiCGStab:  Solving for omega, Initial residual = 4.9529942e-09, Final residual = 1.7245864e-19, No Iterations 3
DILUPBiCGStab:  Solving for k, Initial residual = 1.1305524e-06, Final residual = 1.7274006e-18, No Iterations 3
ExecutionTime = 25.66471 s  ClockTime = 26 s



volFieldValue mindomain_scalar write:
    min() of p = -0.00047020447 at location (1.9686737 0.0004006648 0.5) in cell 99
    min() of k = 1.2065088e-07 at location (1.5234735 0.91041837 0.5) in cell 7471
    min() of omega = 4.859111 at location (1.9686737 0.91041837 0.5) in cell 7479
    min() of nut = 1.0740486e-09 at location (0.046893339 0.0004006648 0.5) in cell 12

volFieldValue mindomain_vector write:
    minMag() of U = 0.5490712 at location (1.9686737 0.0004006648 0.5) in cell 99

volFieldValue maxdomain_scalar write:
    max() of p = 0.0068388655 at location (0.056180455 0.0004006648 0.5) in cell 14
    max() of k = 0.0082635807 at location (0.087665118 0.0004006648 0.5) in cell 20
    max() of omega = 1010.3189 at location (0.087665118 0.0004006648 0.5) in cell 20
    max() of nut = 7.7417205e-05 at location (1.9686737 0.0098875613 0.5) in cell 1099

volFieldValue maxdomain_vector write:
    maxMag() of U = 1.0036493 at location (1.9686737 0.086548926 0.5) in cell 4699

yPlus yplus_stats write:
    patch bottom y+ : min = 0.52313566, max = 99.746107, average = 68.179489

Courant Number mean: 0.4721924 max: 3.1928825
deltaT = 0.01
Time = 10s

DILUPBiCGStab:  Solving for Ux, Initial residual = 9.6494196e-09, Final residual = 6.8802611e-11, No Iterations 1
DILUPBiCGStab:  Solving for Uy, Initial residual = 4.3968735e-08, Final residual = 2.1700731e-11, No Iterations 1
DICPCG:  Solving for p, Initial residual = 5.675394e-07, Final residual = 4.6989405e-08, No Iterations 2
DICPCG:  Solving for p, Initial residual = 4.6989395e-08, Final residual = 9.5812562e-08, No Iterations 2
time step continuity errors : sum local = 6.2134678e-13, global = 4.9276359e-14
DICPCG:  Solving for p, Initial residual = 2.4928106e-07, Final residual = 5.1653491e-08, No Iterations 2
DICPCG:  Solving for p, Initial residual = 5.1653484e-08, Final residual = 3.6029693e-08, No Iterations 1
time step continuity errors : sum local = 2.3365382e-13, global = 4.6181418e-14, cumulative = 6.2809528e-11
DILUPBiCGStab:  Solving for omega, Initial residual = 4.9306438e-09, Final residual = 1.7168762e-19, No Iterations 3
DILUPBiCGStab:  Solving for k, Initial residual = 1.1254154e-06, Final residual = 1.7205404e-18, No Iterations 3
ExecutionTime = 25.683399 s  ClockTime = 26 s



volFieldValue mindomain_scalar write:
    min() of p = -0.00047020395 at location (1.9686737 0.0004006648 0.5) in cell 99
    min() of k = 1.2010967e-07 at location (1.5234735 0.91041837 0.5) in cell 7471
    min() of omega = 4.859111 at location (1.9686737 0.91041837 0.5) in cell 7479
    min() of nut = 1.0693072e-09 at location (0.046893339 0.0004006648 0.5) in cell 12

volFieldValue mindomain_vector write:
    minMag() of U = 0.54907119 at location (1.9686737 0.0004006648 0.5) in cell 99

volFieldValue maxdomain_scalar write:
    max() of p = 0.0068388651 at location (0.056180455 0.0004006648 0.5) in cell 14
    max() of k = 0.0082635802 at location (0.087665118 0.0004006648 0.5) in cell 20
    max() of omega = 1010.3189 at location (0.087665118 0.0004006648 0.5) in cell 20
    max() of nut = 7.7417192e-05 at location (1.9686737 0.0098875613 0.5) in cell 1099

volFieldValue maxdomain_vector write:
    maxMag() of U = 1.0036493 at location (1.9686737 0.086548926 0.5) in cell 4699

yPlus yplus_stats write:
    patch bottom y+ : min = 0.52198096, max = 99.746104, average = 68.179322

End

