/*---------------------------------------------------------------------------*\
  =========                 |
  \\      /  F ield         | OpenFOAM: The Open Source CFD Toolbox
   \\    /   O peration     | Website:  https://openfoam.org
    \\  /    A nd           | Version:  12
     \\/     M anipulation  |
\*---------------------------------------------------------------------------*/
Build  : 12-86e126a7bc4d
Exec   : foamRun
Date   : Jun 14 2026
Time   : 22:05:56
Host   : "NotebookdoDan"
PID    : 72001
I/O    : uncollated
Case   : /home/danilom/OpenFOAM/danilom-12/run/GT2/RANS/KOmegaSST_highRE
nProcs : 1
sigFpe : Enabling floating point exception trapping (FOAM_SIGFPE).
fileModificationChecking : Monitoring run-time modified files using timeStampMaster (fileModificationSkew 10)
allowSystemOperations : Allowing user-supplied system call operations

// * * * * * * * * * * * * * * * * * * * * * * * * * * * * * * * * * * * * * //
Create time

Create mesh for time = 0

Selecting solver incompressibleFluid
Selecting viscosity model Newtonian
Selecting turbulence model type RAS
Selecting RAS turbulence model kOmegaSST
RAS
{
    RASModel        kOmegaSST;
    turbulence      on;
    printCoeffs     on;
    alphaK1         0.85;
    alphaK2         1;
    alphaOmega1     0.5;
    alphaOmega2     0.856;
    gamma1          0.55555556;
    gamma2          0.44;
    beta1           0.075;
    beta2           0.0828;
    betaStar        0.09;
    a1              0.31;
    b1              1;
    c1              10;
    F3              false;
}

No MRF models present

Selecting patchDistMethod meshWave

SIMPLE: Convergence criteria found
        p: tolerance 1e-06
        U: tolerance 1e-06
        "(k|omega)": tolerance 1e-06


SIMPLE: Operating solver in steady-state mode with 1 outer corrector
SIMPLE: Operating solver in SIMPLE mode



Starting time loop

    - selecting all cells
    - selected 7480 cell(s) with volume 2.33333


    - selecting all cells
    - selected 7480 cell(s) with volume 2.33333


    - selecting all cells
    - selected 7480 cell(s) with volume 2.33333


    - selecting all cells
    - selected 7480 cell(s) with volume 2.33333


    - selecting all cells
    - selected 7480 cell(s) with volume 2.33333


    - selecting all cells
    - selected 7480 cell(s) with volume 2.33333




volFieldValue mindomain_scalar write:
    min() of p = 0 at location (0.0015663151 0.0004006648 0.5) in cell 0
    min() of k = 0.00015 at location (0.0015663151 0.0004006648 0.5) in cell 0
    min() of omega = 750 at location (0.0015663151 0.0004006648 0.5) in cell 0
    min() of nut = 2e-07 at location (0.0015663151 0.0004006648 0.5) in cell 0

volFieldValue mindomain_vector write:
    minMag() of U = 1 at location (0.0015663151 0.0004006648 0.5) in cell 0

volFieldValue maxdomain_scalar write:
    max() of p = 0 at location (0.0015663151 0.0004006648 0.5) in cell 0
    max() of k = 0.00015 at location (0.0015663151 0.0004006648 0.5) in cell 0
    max() of omega = 750 at location (0.0015663151 0.0004006648 0.5) in cell 0
    max() of nut = 2e-07 at location (0.0015663151 0.0004006648 0.5) in cell 0

volFieldValue maxdomain_vector write:
    maxMag() of U = 1 at location (0.0015663151 0.0004006648 0.5) in cell 0

yPlus yplus_stats write:
    patch bottom y+ : min = 117.66552, max = 117.66552, average = 117.66552

Time = 1s

DILUPBiCGStab:  Solving for Ux, Initial residual = 1, Final residual = 1.1966363e-10, No Iterations 3
DILUPBiCGStab:  Solving for Uy, Initial residual = 0.012961853, Final residual = 3.8526961e-10, No Iterations 3
DICPCG:  Solving for p, Initial residual = 1, Final residual = 0.0089488883, No Iterations 83
DICPCG:  Solving for p, Initial residual = 5.7608884e-05, Final residual = 5.748394e-07, No Iterations 35
DICPCG:  Solving for p, Initial residual = 5.7487116e-07, Final residual = 9.5959742e-09, No Iterations 47
time step continuity errors : sum local = 2.9141734e-10, global = -7.3242699e-11, cumulative = -7.3242699e-11
DILUPBiCGStab:  Solving for omega, Initial residual = 0.99888052, Final residual = 3.2156682e-16, No Iterations 3
DILUPBiCGStab:  Solving for k, Initial residual = 1, Final residual = 1.0421825e-12, No Iterations 3
ExecutionTime = 0.114305 s  ClockTime = 0 s



volFieldValue mindomain_scalar write:
    min() of p = 2.1564268e-05 at location (1.9686737 0.91041837 0.5) in cell 7479
    min() of k = 5.0091331e-05 at location (1.9686737 0.91041837 0.5) in cell 7479
    min() of omega = 136.11938 at location (0.042456348 0.0004006648 0.5) in cell 11
    min() of nut = 2.3324714e-07 at location (0.022178072 0.0029273097 0.5) in cell 306

volFieldValue mindomain_vector write:
    minMag() of U = 0.52713686 at location (1.9686737 0.0004006648 0.5) in cell 99

volFieldValue maxdomain_scalar write:
    max() of p = 0.0035859118 at location (0.022178072 0.0004006648 0.5) in cell 6
    max() of k = 0.001059432 at location (1.9686737 0.0004006648 0.5) in cell 99
    max() of omega = 430.50072 at location (0.01847776 0.0020572852 0.5) in cell 205
    max() of nut = 1.3953172e-06 at location (0.0080255378 0.0004006648 0.5) in cell 2

volFieldValue maxdomain_vector write:
    maxMag() of U = 1.0006362 at location (1.9686737 0.011019047 0.5) in cell 1199

yPlus yplus_stats write:
    patch bottom y+ : min = 67.962018, max = 116.8057, average = 95.2551

Time = 2s

DILUPBiCGStab:  Solving for Ux, Initial residual = 0.055139306, Final residual = 1.1222174e-09, No Iterations 3
DILUPBiCGStab:  Solving for Uy, Initial residual = 0.32727517, Final residual = 4.9742666e-10, No Iterations 3
DICPCG:  Solving for p, Initial residual = 0.011176055, Final residual = 0.00010417736, No Iterations 83
DICPCG:  Solving for p, Initial residual = 8.1559693e-05, Final residual = 7.6576287e-07, No Iterations 32
DICPCG:  Solving for p, Initial residual = 7.6577717e-07, Final residual = 9.5474259e-09, No Iterations 74
time step continuity errors : sum local = 3.7196296e-10, global = 6.8333328e-12, cumulative = -6.6409366e-11
DILUPBiCGStab:  Solving for omega, Initial residual = 0.54876118, Final residual = 1.7995535e-13, No Iterations 3
DILUPBiCGStab:  Solving for k, Initial residual = 0.47890518, Final residual = 1.3231346e-12, No Iterations 3
ExecutionTime = 0.142719 s  ClockTime = 0 s



volFieldValue mindomain_scalar write:
    min() of p = 1.3849267e-05 at location (1.9686737 0.0004006648 0.5) in cell 99
    min() of k = 2.5173871e-05 at location (1.9686737 0.91041837 0.5) in cell 7479
    min() of omega = 61.918232 at location (1.9686737 0.91041837 0.5) in cell 7479
    min() of nut = 2.0074873e-07 at location (-0.28438808 0.91041837 0.5) in cell 5670

volFieldValue mindomain_vector write:
    minMag() of U = 0.29495571 at location (1.9686737 0.0004006648 0.5) in cell 99

volFieldValue maxdomain_scalar write:
    max() of p = 0.0060552529 at location (0.011404732 0.0004006648 0.5) in cell 3
    max() of k = 0.0039495612 at location (0.3540908 0.0004006648 0.5) in cell 49
    max() of omega = 1897.9969 at location (1.9686737 0.001215373 0.5) in cell 199
    max() of nut = 1.3606823e-06 at location (0.34049728 0.0004006648 0.5) in cell 48

volFieldValue maxdomain_vector write:
    maxMag() of U = 1.0008092 at location (1.9686737 0.19910242 0.5) in cell 6579

yPlus yplus_stats write:
    patch bottom y+ : min = 41.832159, max = 116.06989, average = 75.472623

Time = 3s

DILUPBiCGStab:  Solving for Ux, Initial residual = 0.021990591, Final residual = 9.427724e-09, No Iterations 3
DILUPBiCGStab:  Solving for Uy, Initial residual = 0.21252608, Final residual = 1.3615943e-09, No Iterations 3
DICPCG:  Solving for p, Initial residual = 0.010083099, Final residual = 9.6500534e-05, No Iterations 78
DICPCG:  Solving for p, Initial residual = 0.00011972435, Final residual = 1.1542842e-06, No Iterations 40
DICPCG:  Solving for p, Initial residual = 1.1542099e-06, Final residual = 9.3631834e-09, No Iterations 73
time step continuity errors : sum local = 2.9551398e-10, global = -1.6439856e-11, cumulative = -8.2849222e-11
DILUPBiCGStab:  Solving for omega, Initial residual = 0.28520603, Final residual = 9.7181792e-13, No Iterations 3
DILUPBiCGStab:  Solving for k, Initial residual = 0.16214808, Final residual = 1.3577899e-12, No Iterations 3
ExecutionTime = 0.168831 s  ClockTime = 0 s



volFieldValue mindomain_scalar write:
    min() of p = -6.1021027e-06 at location (1.9686737 0.0004006648 0.5) in cell 99
    min() of k = 1.6179684e-05 at location (1.9686737 0.91041837 0.5) in cell 7479
    min() of omega = 32.427666 at location (1.9686737 0.91041837 0.5) in cell 7479
    min() of nut = 1.9410934e-07 at location (-0.28438808 0.74872929 0.5) in cell 5660

volFieldValue mindomain_vector write:
    minMag() of U = 0.24319711 at location (1.9686737 0.0004006648 0.5) in cell 99

volFieldValue maxdomain_scalar write:
    max() of p = 0.0068459701 at location (0.0080255378 0.0004006648 0.5) in cell 2
    max() of k = 0.0047338402 at location (0.087665118 0.0004006648 0.5) in cell 20
    max() of omega = 1067.042 at location (0.73335448 0.001215373 0.5) in cell 169
    max() of nut = 2.8489741e-06 at location (0.056180455 0.0004006648 0.5) in cell 14

volFieldValue maxdomain_vector write:
    maxMag() of U = 1.0011775 at location (0.44488522 0.0057156019 0.5) in cell 655

yPlus yplus_stats write:
    patch bottom y+ : min = 35.730733, max = 115.92093, average = 67.570803

Time = 4s

DILUPBiCGStab:  Solving for Ux, Initial residual = 0.012939848, Final residual = 7.7795506e-09, No Iterations 3
DILUPBiCGStab:  Solving for Uy, Initial residual = 0.12727457, Final residual = 3.0388066e-09, No Iterations 3
DICPCG:  Solving for p, Initial residual = 0.010311912, Final residual = 7.7112233e-05, No Iterations 83
DICPCG:  Solving for p, Initial residual = 9.3246708e-05, Final residual = 8.907745e-07, No Iterations 29
DICPCG:  Solving for p, Initial residual = 8.907658e-07, Final residual = 8.3021325e-09, No Iterations 74
time step continuity errors : sum local = 2.1781916e-10, global = 1.4470822e-11, cumulative = -6.83784e-11
DILUPBiCGStab:  Solving for omega, Initial residual = 0.16817122, Final residual = 3.1226366e-12, No Iterations 3
DILUPBiCGStab:  Solving for k, Initial residual = 0.089750229, Final residual = 1.844112e-12, No Iterations 3
ExecutionTime = 0.19378 s  ClockTime = 0 s



volFieldValue mindomain_scalar write:
    min() of p = -7.7059587e-06 at location (1.9686737 0.0004006648 0.5) in cell 99
    min() of k = 1.1853492e-05 at location (1.9686737 0.91041837 0.5) in cell 7479
    min() of omega = 21.719195 at location (1.9686737 0.91041837 0.5) in cell 7479
    min() of nut = 1.8480566e-07 at location (-0.20036111 0.91041837 0.5) in cell 5671

volFieldValue mindomain_vector write:
    minMag() of U = 0.25710201 at location (1.9686737 0.0004006648 0.5) in cell 99

volFieldValue maxdomain_scalar write:
    max() of p = 0.0073130802 at location (0.0047470663 0.0004006648 0.5) in cell 1
    max() of k = 0.0060539496 at location (0.061039084 0.0004006648 0.5) in cell 15
    max() of omega = 887.05169 at location (1.3381715 0.001215373 0.5) in cell 187
    max() of nut = 4.3611843e-06 at location (0.033975179 0.0004006648 0.5) in cell 9

volFieldValue maxdomain_vector write:
    maxMag() of U = 1.0014806 at location (0.51524836 0.0057156019 0.5) in cell 659

yPlus yplus_stats write:
    patch bottom y+ : min = 37.383198, max = 115.8725, average = 64.34004

Time = 5s

DILUPBiCGStab:  Solving for Ux, Initial residual = 0.0090196216, Final residual = 1.8547891e-09, No Iterations 3
DILUPBiCGStab:  Solving for Uy, Initial residual = 0.082432752, Final residual = 8.8477279e-09, No Iterations 3
DICPCG:  Solving for p, Initial residual = 0.010658228, Final residual = 0.00010151668, No Iterations 78
DICPCG:  Solving for p, Initial residual = 0.00011562743, Final residual = 1.0170913e-06, No Iterations 47
DICPCG:  Solving for p, Initial residual = 1.0170696e-06, Final residual = 9.3671722e-09, No Iterations 60
time step continuity errors : sum local = 2.1656782e-10, global = 2.1155796e-11, cumulative = -4.7222604e-11
DILUPBiCGStab:  Solving for omega, Initial residual = 0.11326061, Final residual = 4.0241284e-12, No Iterations 3
DILUPBiCGStab:  Solving for k, Initial residual = 0.063081032, Final residual = 1.5322485e-12, No Iterations 3
ExecutionTime = 0.216847 s  ClockTime = 0 s



volFieldValue mindomain_scalar write:
    min() of p = -4.3793508e-06 at location (1.9686737 0.0004006648 0.5) in cell 99
    min() of k = 9.3671436e-06 at location (1.9686737 0.91041837 0.5) in cell 7479
    min() of omega = 16.565046 at location (1.9686737 0.91041837 0.5) in cell 7479
    min() of nut = 1.652073e-07 at location (0.0047470663 0.0004006648 0.5) in cell 1

volFieldValue mindomain_vector write:
    minMag() of U = 0.27404525 at location (1.9686737 0.0004006648 0.5) in cell 99

volFieldValue maxdomain_scalar write:
    max() of p = 0.0075444157 at location (0.0047470663 0.0004006648 0.5) in cell 1
    max() of k = 0.0067954721 at location (0.051466646 0.0004006648 0.5) in cell 13
    max() of omega = 864.75629 at location (0.061039084 0.0004006648 0.5) in cell 15
    max() of nut = 5.7780707e-06 at location (0.029923235 0.0004006648 0.5) in cell 8

volFieldValue maxdomain_vector write:
    maxMag() of U = 1.0017152 at location (0.26703454 0.0047554818 0.5) in cell 542

yPlus yplus_stats write:
    patch bottom y+ : min = 39.383132, max = 115.99746, average = 64.026352

Time = 6s

DILUPBiCGStab:  Solving for Ux, Initial residual = 0.0085905715, Final residual = 1.8520554e-09, No Iterations 4
DILUPBiCGStab:  Solving for Uy, Initial residual = 0.057994854, Final residual = 1.2150695e-09, No Iterations 4
DICPCG:  Solving for p, Initial residual = 0.014554185, Final residual = 0.00014322165, No Iterations 71
DICPCG:  Solving for p, Initial residual = 0.0001463559, Final residual = 1.2475498e-06, No Iterations 64
DICPCG:  Solving for p, Initial residual = 1.2477589e-06, Final residual = 1.0466169e-08, No Iterations 71
time step continuity errors : sum local = 2.3812944e-10, global = -1.2334649e-11, cumulative = -5.9557254e-11
DILUPBiCGStab:  Solving for omega, Initial residual = 0.082396129, Final residual = 3.5543401e-12, No Iterations 3
DILUPBiCGStab:  Solving for k, Initial residual = 0.05131613, Final residual = 1.9500941e-12, No Iterations 3
ExecutionTime = 0.245158 s  ClockTime = 0 s



volFieldValue mindomain_scalar write:
    min() of p = -4.2284153e-06 at location (1.9686737 0.0004006648 0.5) in cell 99
    min() of k = 7.7637773e-06 at location (1.9686737 0.91041837 0.5) in cell 7479
    min() of omega = 13.6222 at location (1.9686737 0.91041837 0.5) in cell 7479
    min() of nut = 8.7063922e-08 at location (0.0047470663 0.0004006648 0.5) in cell 1

volFieldValue mindomain_vector write:
    minMag() of U = 0.320895 at location (1.9686737 0.0004006648 0.5) in cell 99

volFieldValue maxdomain_scalar write:
    max() of p = 0.0076696936 at location (0.0015663151 0.0004006648 0.5) in cell 0
    max() of k = 0.007229786 at location (0.046893339 0.0004006648 0.5) in cell 12
    max() of omega = 916.18705 at location (0.051466646 0.0004006648 0.5) in cell 13
    max() of nut = 6.7685533e-06 at location (0.029923235 0.0004006648 0.5) in cell 8

volFieldValue maxdomain_vector write:
    maxMag() of U = 1.0018365 at location (0.25603587 0.0057156019 0.5) in cell 641

yPlus yplus_stats write:
    patch bottom y+ : min = 44.843046, max = 116.0202, average = 65.903311

Time = 7s

DILUPBiCGStab:  Solving for Ux, Initial residual = 0.0081808308, Final residual = 1.5968771e-09, No Iterations 4
DILUPBiCGStab:  Solving for Uy, Initial residual = 0.047467302, Final residual = 3.7521292e-09, No Iterations 4
DICPCG:  Solving for p, Initial residual = 0.014848636, Final residual = 0.00013289332, No Iterations 74
DICPCG:  Solving for p, Initial residual = 0.00012601046, Final residual = 1.1540844e-06, No Iterations 63
DICPCG:  Solving for p, Initial residual = 1.1540428e-06, Final residual = 1.0944979e-08, No Iterations 71
time step continuity errors : sum local = 2.643092e-10, global = 6.7907533e-12, cumulative = -5.27665e-11
DILUPBiCGStab:  Solving for omega, Initial residual = 0.060735593, Final residual = 1.4029731e-11, No Iterations 3
DILUPBiCGStab:  Solving for k, Initial residual = 0.033345988, Final residual = 3.9273402e-12, No Iterations 3
ExecutionTime = 0.269823 s  ClockTime = 0 s



volFieldValue mindomain_scalar write:
    min() of p = -6.3022255e-06 at location (1.9686737 0.0004006648 0.5) in cell 99
    min() of k = 6.6437938e-06 at location (1.9686737 0.91041837 0.5) in cell 7479
    min() of omega = 11.751485 at location (1.9686737 0.91041837 0.5) in cell 7479
    min() of nut = 6.3770273e-08 at location (0.0047470663 0.0004006648 0.5) in cell 1

volFieldValue mindomain_vector write:
    minMag() of U = 0.34650896 at location (1.9686737 0.0004006648 0.5) in cell 99

volFieldValue maxdomain_scalar write:
    max() of p = 0.0078342366 at location (0.0015663151 0.0004006648 0.5) in cell 0
    max() of k = 0.0074415235 at location (0.046893339 0.0004006648 0.5) in cell 12
    max() of omega = 945.01141 at location (0.046893339 0.0004006648 0.5) in cell 12
    max() of nut = 7.4181749e-06 at location (0.029923235 0.0004006648 0.5) in cell 8

volFieldValue maxdomain_vector write:
    maxMag() of U = 1.0019277 at location (0.73335448 0.0077330908 0.5) in cell 869

yPlus yplus_stats write:
    patch bottom y+ : min = 47.789205, max = 115.83737, average = 68.141618

Time = 8s

DILUPBiCGStab:  Solving for Ux, Initial residual = 0.0073366029, Final residual = 9.7289032e-09, No Iterations 4
DILUPBiCGStab:  Solving for Uy, Initial residual = 0.044509604, Final residual = 2.6487122e-09, No Iterations 4
DICPCG:  Solving for p, Initial residual = 0.013924002, Final residual = 0.00013784348, No Iterations 77
DICPCG:  Solving for p, Initial residual = 0.00012665035, Final residual = 1.109891e-06, No Iterations 65
DICPCG:  Solving for p, Initial residual = 1.1097484e-06, Final residual = 1.0771595e-08, No Iterations 74
time step continuity errors : sum local = 2.8522329e-10, global = 4.1085358e-12, cumulative = -4.8657964e-11
DILUPBiCGStab:  Solving for omega, Initial residual = 0.046065237, Final residual = 3.8554851e-12, No Iterations 3
DILUPBiCGStab:  Solving for k, Initial residual = 0.021467224, Final residual = 1.4546328e-12, No Iterations 3
ExecutionTime = 0.296517 s  ClockTime = 0 s



volFieldValue mindomain_scalar write:
    min() of p = -1.3591742e-05 at location (1.9686737 0.0004006648 0.5) in cell 99
    min() of k = 5.8141061e-06 at location (1.9686737 0.91041837 0.5) in cell 7479
    min() of omega = 10.4736 at location (1.9686737 0.91041837 0.5) in cell 7479
    min() of nut = 5.2861333e-08 at location (0.0047470663 0.0004006648 0.5) in cell 1

volFieldValue mindomain_vector write:
    minMag() of U = 0.36699199 at location (1.9686737 0.0004006648 0.5) in cell 99

volFieldValue maxdomain_scalar write:
    max() of p = 0.0079599171 at location (0.0015663151 0.0004006648 0.5) in cell 0
    max() of k = 0.0075521185 at location (0.046893339 0.0004006648 0.5) in cell 12
    max() of omega = 958.74974 at location (0.046893339 0.0004006648 0.5) in cell 12
    max() of nut = 7.6745899e-06 at location (0.033975179 0.0004006648 0.5) in cell 9

volFieldValue maxdomain_vector write:
    maxMag() of U = 1.002074 at location (1.9069548 0.011019047 0.5) in cell 1198

yPlus yplus_stats write:
    patch bottom y+ : min = 50.127423, max = 115.82011, average = 69.84743

Time = 9s

DILUPBiCGStab:  Solving for Ux, Initial residual = 0.0067901912, Final residual = 3.3358029e-09, No Iterations 5
DILUPBiCGStab:  Solving for Uy, Initial residual = 0.041166049, Final residual = 8.5076457e-09, No Iterations 4
DICPCG:  Solving for p, Initial residual = 0.012372051, Final residual = 0.00011289787, No Iterations 70
DICPCG:  Solving for p, Initial residual = 0.00010632287, Final residual = 1.0182999e-06, No Iterations 65
DICPCG:  Solving for p, Initial residual = 1.0182533e-06, Final residual = 9.8044566e-09, No Iterations 76
time step continuity errors : sum local = 2.7708038e-10, global = 7.7544479e-13, cumulative = -4.788252e-11
DILUPBiCGStab:  Solving for omega, Initial residual = 0.035496366, Final residual = 2.9585e-12, No Iterations 3
DILUPBiCGStab:  Solving for k, Initial residual = 0.016715234, Final residual = 2.7693777e-10, No Iterations 3
ExecutionTime = 0.322038 s  ClockTime = 0 s



volFieldValue mindomain_scalar write:
    min() of p = -2.0217991e-05 at location (1.9686737 0.0004006648 0.5) in cell 99
    min() of k = 5.1711314e-06 at location (1.9686737 0.91041837 0.5) in cell 7479
    min() of omega = 9.5551631 at location (1.9686737 0.91041837 0.5) in cell 7479
    min() of nut = 4.1935205e-08 at location (0.0080255378 0.0004006648 0.5) in cell 2

volFieldValue mindomain_vector write:
    minMag() of U = 0.38437653 at location (1.9686737 0.0004006648 0.5) in cell 99

volFieldValue maxdomain_scalar write:
    max() of p = 0.0080130014 at location (0.0015663151 0.0004006648 0.5) in cell 0
    max() of k = 0.0076105444 at location (0.046893339 0.0004006648 0.5) in cell 12
    max() of omega = 965.84787 at location (0.046893339 0.0004006648 0.5) in cell 12
    max() of nut = 9.2709364e-06 at location (1.9686737 0.0020572852 0.5) in cell 299

volFieldValue maxdomain_vector write:
    maxMag() of U = 1.0022973 at location (1.9069548 0.015935632 0.5) in cell 1598

yPlus yplus_stats write:
    patch bottom y+ : min = 52.100367, max = 115.82385, average = 71.467672

Time = 10s

DILUPBiCGStab:  Solving for Ux, Initial residual = 0.0061374184, Final residual = 3.3572443e-09, No Iterations 5
DILUPBiCGStab:  Solving for Uy, Initial residual = 0.036471533, Final residual = 9.4124273e-09, No Iterations 4
DICPCG:  Solving for p, Initial residual = 0.0109953, Final residual = 0.00010170302, No Iterations 75
DICPCG:  Solving for p, Initial residual = 9.6347589e-05, Final residual = 9.0156163e-07, No Iterations 51
DICPCG:  Solving for p, Initial residual = 9.015532e-07, Final residual = 7.5350515e-09, No Iterations 71
time step continuity errors : sum local = 2.256187e-10, global = 5.4554078e-13, cumulative = -4.7336979e-11
DILUPBiCGStab:  Solving for omega, Initial residual = 0.027201649, Final residual = 2.8341534e-11, No Iterations 3
DILUPBiCGStab:  Solving for k, Initial residual = 0.013274336, Final residual = 8.0679461e-11, No Iterations 3
ExecutionTime = 0.346373 s  ClockTime = 0 s



volFieldValue mindomain_scalar write:
    min() of p = -2.3864801e-05 at location (1.9686737 0.0004006648 0.5) in cell 99
    min() of k = 4.6548303e-06 at location (1.9686737 0.91041837 0.5) in cell 7479
    min() of omega = 8.8699137 at location (1.9686737 0.91041837 0.5) in cell 7479
    min() of nut = 3.5008303e-08 at location (0.0080255378 0.0004006648 0.5) in cell 2

volFieldValue mindomain_vector write:
    minMag() of U = 0.39939098 at location (1.9686737 0.0004006648 0.5) in cell 99

volFieldValue maxdomain_scalar write:
    max() of p = 0.0080549709 at location (0.0015663151 0.0004006648 0.5) in cell 0
    max() of k = 0.0076386031 at location (0.046893339 0.0004006648 0.5) in cell 12
    max() of omega = 969.57675 at location (0.046893339 0.0004006648 0.5) in cell 12
    max() of nut = 1.1370712e-05 at location (1.9686737 0.0020572852 0.5) in cell 299

volFieldValue maxdomain_vector write:
    maxMag() of U = 1.002474 at location (1.9069548 0.023063183 0.5) in cell 2098

yPlus yplus_stats write:
    patch bottom y+ : min = 53.796232, max = 115.83092, average = 72.956428

Time = 11s

DILUPBiCGStab:  Solving for Ux, Initial residual = 0.0055020691, Final residual = 5.2270311e-09, No Iterations 5
DILUPBiCGStab:  Solving for Uy, Initial residual = 0.032063189, Final residual = 5.8422783e-09, No Iterations 5
DICPCG:  Solving for p, Initial residual = 0.010377845, Final residual = 8.4836436e-05, No Iterations 74
DICPCG:  Solving for p, Initial residual = 8.0751331e-05, Final residual = 7.8033916e-07, No Iterations 45
DICPCG:  Solving for p, Initial residual = 7.8034334e-07, Final residual = 9.5113521e-09, No Iterations 71
time step continuity errors : sum local = 3.0005522e-10, global = -6.1053341e-12, cumulative = -5.3442313e-11
DILUPBiCGStab:  Solving for omega, Initial residual = 0.021100424, Final residual = 1.5859085e-10, No Iterations 3
DILUPBiCGStab:  Solving for k, Initial residual = 0.010971367, Final residual = 2.3957546e-10, No Iterations 3
ExecutionTime = 0.370147 s  ClockTime = 0 s



volFieldValue mindomain_scalar write:
    min() of p = -2.6870973e-05 at location (1.9686737 0.0004006648 0.5) in cell 99
    min() of k = 4.2282972e-06 at location (1.9686737 0.91041837 0.5) in cell 7479
    min() of omega = 8.3439039 at location (1.9686737 0.91041837 0.5) in cell 7479
    min() of nut = 3.2615509e-08 at location (0.0080255378 0.0004006648 0.5) in cell 2

volFieldValue mindomain_vector write:
    minMag() of U = 0.41190139 at location (1.9686737 0.0004006648 0.5) in cell 99

volFieldValue maxdomain_scalar write:
    max() of p = 0.0080997931 at location (0.0015663151 0.0004006648 0.5) in cell 0
    max() of k = 0.0076483379 at location (0.046893339 0.0004006648 0.5) in cell 12
    max() of omega = 971.36243 at location (0.046893339 0.0004006648 0.5) in cell 12
    max() of nut = 1.3272688e-05 at location (1.9686737 0.0020572852 0.5) in cell 299

volFieldValue maxdomain_vector write:
    maxMag() of U = 1.0026215 at location (1.8470756 0.013396624 0.5) in cell 1397

yPlus yplus_stats write:
    patch bottom y+ : min = 55.203781, max = 115.83824, average = 74.277071

Time = 12s

DILUPBiCGStab:  Solving for Ux, Initial residual = 0.0049628679, Final residual = 5.4576961e-09, No Iterations 5
DILUPBiCGStab:  Solving for Uy, Initial residual = 0.02869609, Final residual = 4.2642606e-09, No Iterations 5
DICPCG:  Solving for p, Initial residual = 0.0096483655, Final residual = 9.2989534e-05, No Iterations 68
DICPCG:  Solving for p, Initial residual = 8.8679485e-05, Final residual = 7.1486632e-07, No Iterations 74
DICPCG:  Solving for p, Initial residual = 7.1483789e-07, Final residual = 7.958126e-09, No Iterations 65
time step continuity errors : sum local = 2.6383939e-10, global = 2.0450137e-11, cumulative = -3.2992176e-11
DILUPBiCGStab:  Solving for omega, Initial residual = 0.016509606, Final residual = 2.3344128e-10, No Iterations 3
DILUPBiCGStab:  Solving for k, Initial residual = 0.0091210367, Final residual = 5.8832685e-10, No Iterations 3
ExecutionTime = 0.394464 s  ClockTime = 0 s



volFieldValue mindomain_scalar write:
    min() of p = -3.0727795e-05 at location (1.9686737 0.0004006648 0.5) in cell 99
    min() of k = 3.8678125e-06 at location (1.9686737 0.91041837 0.5) in cell 7479
    min() of omega = 7.9310512 at location (1.9686737 0.91041837 0.5) in cell 7479
    min() of nut = 3.1753818e-08 at location (0.0080255378 0.0004006648 0.5) in cell 2

volFieldValue mindomain_vector write:
    minMag() of U = 0.42264702 at location (1.9686737 0.0004006648 0.5) in cell 99

volFieldValue maxdomain_scalar write:
    max() of p = 0.0081601844 at location (0.0015663151 0.0004006648 0.5) in cell 0
    max() of k = 0.0076483768 at location (0.046893339 0.0004006648 0.5) in cell 12
    max() of omega = 971.9812 at location (0.046893339 0.0004006648 0.5) in cell 12
    max() of nut = 1.5603762e-05 at location (1.9686737 0.0029273097 0.5) in cell 399

volFieldValue maxdomain_vector write:
    maxMag() of U = 1.0027458 at location (1.7889812 0.013396624 0.5) in cell 1396

yPlus yplus_stats write:
    patch bottom y+ : min = 56.408923, max = 115.84351, average = 75.430078

Time = 13s

DILUPBiCGStab:  Solving for Ux, Initial residual = 0.0045736748, Final residual = 3.7537048e-09, No Iterations 5
DILUPBiCGStab:  Solving for Uy, Initial residual = 0.026383493, Final residual = 4.261e-09, No Iterations 5
DICPCG:  Solving for p, Initial residual = 0.0085561953, Final residual = 7.6087898e-05, No Iterations 72
DICPCG:  Solving for p, Initial residual = 7.2680455e-05, Final residual = 7.2008863e-07, No Iterations 43
DICPCG:  Solving for p, Initial residual = 7.2008889e-07, Final residual = 8.1207951e-09, No Iterations 70
time step continuity errors : sum local = 2.8215209e-10, global = -3.9686553e-13, cumulative = -3.3389042e-11
DILUPBiCGStab:  Solving for omega, Initial residual = 0.013072685, Final residual = 6.7175645e-10, No Iterations 3
DILUPBiCGStab:  Solving for k, Initial residual = 0.0078383989, Final residual = 8.6628393e-10, No Iterations 3
ExecutionTime = 0.418633 s  ClockTime = 0 s



volFieldValue mindomain_scalar write:
    min() of p = -3.6954384e-05 at location (1.9686737 0.0004006648 0.5) in cell 99
    min() of k = 3.5576229e-06 at location (1.9686737 0.91041837 0.5) in cell 7479
    min() of omega = 7.6011547 at location (1.9686737 0.91041837 0.5) in cell 7479
    min() of nut = 3.1428707e-08 at location (0.0080255378 0.0004006648 0.5) in cell 2

volFieldValue mindomain_vector write:
    minMag() of U = 0.43185124 at location (1.9686737 0.0004006648 0.5) in cell 99

volFieldValue maxdomain_scalar write:
    max() of p = 0.0082369279 at location (0.0015663151 0.0004006648 0.5) in cell 0
    max() of k = 0.0076439224 at location (0.046893339 0.0004006648 0.5) in cell 12
    max() of omega = 971.98367 at location (0.046893339 0.0004006648 0.5) in cell 12
    max() of nut = 1.7773707e-05 at location (1.9686737 0.0029273097 0.5) in cell 399

volFieldValue maxdomain_vector write:
    maxMag() of U = 1.0028545 at location (1.9686737 0.014645281 0.5) in cell 1499

yPlus yplus_stats write:
    patch bottom y+ : min = 57.438469, max = 115.84717, average = 76.426546

Time = 14s

DILUPBiCGStab:  Solving for Ux, Initial residual = 0.0041806263, Final residual = 3.5466264e-09, No Iterations 5
DILUPBiCGStab:  Solving for Uy, Initial residual = 0.024068263, Final residual = 7.3225738e-09, No Iterations 5
DICPCG:  Solving for p, Initial residual = 0.0080566183, Final residual = 7.7944673e-05, No Iterations 70
DICPCG:  Solving for p, Initial residual = 7.4488645e-05, Final residual = 6.5030043e-07, No Iterations 55
DICPCG:  Solving for p, Initial residual = 6.5030812e-07, Final residual = 8.6566953e-09, No Iterations 68
time step continuity errors : sum local = 3.1506729e-10, global = 1.9028085e-11, cumulative = -1.4360957e-11
DILUPBiCGStab:  Solving for omega, Initial residual = 0.010424479, Final residual = 1.065257e-09, No Iterations 3
DILUPBiCGStab:  Solving for k, Initial residual = 0.0066917781, Final residual = 1.9072566e-09, No Iterations 3
ExecutionTime = 0.441489 s  ClockTime = 0 s



volFieldValue mindomain_scalar write:
    min() of p = -4.4919226e-05 at location (1.9686737 0.0004006648 0.5) in cell 99
    min() of k = 3.2870338e-06 at location (1.9686737 0.91041837 0.5) in cell 7479
    min() of omega = 7.3335623 at location (1.9686737 0.91041837 0.5) in cell 7479
    min() of nut = 3.1300577e-08 at location (0.0080255378 0.0004006648 0.5) in cell 2

volFieldValue mindomain_vector write:
    minMag() of U = 0.43959929 at location (1.9686737 0.0004006648 0.5) in cell 99

volFieldValue maxdomain_scalar write:
    max() of p = 0.0083314127 at location (0.0015663151 0.0004006648 0.5) in cell 0
    max() of k = 0.0076387449 at location (0.046893339 0.0004006648 0.5) in cell 12
    max() of omega = 971.70059 at location (0.046893339 0.0004006648 0.5) in cell 12
    max() of nut = 1.9934498e-05 at location (1.9686737 0.0029273097 0.5) in cell 399

volFieldValue maxdomain_vector write:
    maxMag() of U = 1.0029691 at location (1.9069548 0.035228536 0.5) in cell 2798

yPlus yplus_stats write:
    patch bottom y+ : min = 58.303224, max = 115.84944, average = 77.279721

Time = 15s

DILUPBiCGStab:  Solving for Ux, Initial residual = 0.0039179578, Final residual = 2.9368665e-09, No Iterations 5
DILUPBiCGStab:  Solving for Uy, Initial residual = 0.0216221, Final residual = 4.3858414e-09, No Iterations 5
DICPCG:  Solving for p, Initial residual = 0.0074159239, Final residual = 5.9075981e-05, No Iterations 67
DICPCG:  Solving for p, Initial residual = 5.6661764e-05, Final residual = 5.0753708e-07, No Iterations 47
DICPCG:  Solving for p, Initial residual = 5.0753613e-07, Final residual = 9.4267071e-09, No Iterations 68
time step continuity errors : sum local = 3.5794781e-10, global = -5.7368346e-12, cumulative = -2.0097791e-11
DILUPBiCGStab:  Solving for omega, Initial residual = 0.0083365449, Final residual = 1.8493327e-09, No Iterations 3
DILUPBiCGStab:  Solving for k, Initial residual = 0.0058026231, Final residual = 3.2352128e-09, No Iterations 3
ExecutionTime = 0.464271 s  ClockTime = 0 s



volFieldValue mindomain_scalar write:
    min() of p = -5.3907409e-05 at location (1.9686737 0.0004006648 0.5) in cell 99
    min() of k = 3.048693e-06 at location (1.9686737 0.91041837 0.5) in cell 7479
    min() of omega = 7.1136059 at location (1.9686737 0.91041837 0.5) in cell 7479
    min() of nut = 3.1245182e-08 at location (0.0080255378 0.0004006648 0.5) in cell 2

volFieldValue mindomain_vector write:
    minMag() of U = 0.44642617 at location (1.9686737 0.0004006648 0.5) in cell 99

volFieldValue maxdomain_scalar write:
    max() of p = 0.0084312348 at location (0.0015663151 0.0004006648 0.5) in cell 0
    max() of k = 0.0076339717 at location (0.046893339 0.0004006648 0.5) in cell 12
    max() of omega = 971.37144 at location (0.046893339 0.0004006648 0.5) in cell 12
    max() of nut = 2.1844331e-05 at location (1.9686737 0.0029273097 0.5) in cell 399

volFieldValue maxdomain_vector write:
    maxMag() of U = 1.0031014 at location (1.9069548 0.037206184 0.5) in cell 2898

yPlus yplus_stats write:
    patch bottom y+ : min = 59.063749, max = 115.85004, average = 78.008318

Time = 16s

DILUPBiCGStab:  Solving for Ux, Initial residual = 0.0035794091, Final residual = 2.4930867e-09, No Iterations 5
DILUPBiCGStab:  Solving for Uy, Initial residual = 0.019178927, Final residual = 5.3455161e-09, No Iterations 5
DICPCG:  Solving for p, Initial residual = 0.0069007777, Final residual = 6.1271553e-05, No Iterations 66
DICPCG:  Solving for p, Initial residual = 5.9184278e-05, Final residual = 5.4022966e-07, No Iterations 30
DICPCG:  Solving for p, Initial residual = 5.402254e-07, Final residual = 8.7793477e-09, No Iterations 72
time step continuity errors : sum local = 3.4510275e-10, global = -1.6056231e-11, cumulative = -3.6154022e-11
DILUPBiCGStab:  Solving for omega, Initial residual = 0.0067098977, Final residual = 2.4454202e-09, No Iterations 3
DILUPBiCGStab:  Solving for k, Initial residual = 0.0050715832, Final residual = 5.0064899e-09, No Iterations 3
ExecutionTime = 0.486291 s  ClockTime = 1 s



volFieldValue mindomain_scalar write:
    min() of p = -6.3976984e-05 at location (1.9686737 0.0004006648 0.5) in cell 99
    min() of k = 2.8375147e-06 at location (1.9686737 0.91041837 0.5) in cell 7479
    min() of omega = 6.9305004 at location (1.9686737 0.91041837 0.5) in cell 7479
    min() of nut = 2.9982523e-08 at location (0.011404732 0.0004006648 0.5) in cell 3

volFieldValue mindomain_vector write:
    minMag() of U = 0.45240092 at location (1.9686737 0.0004006648 0.5) in cell 99

volFieldValue maxdomain_scalar write:
    max() of p = 0.0085201704 at location (0.0015663151 0.0004006648 0.5) in cell 0
    max() of k = 0.0076305817 at location (0.046893339 0.0004006648 0.5) in cell 12
    max() of omega = 971.06791 at location (0.046893339 0.0004006648 0.5) in cell 12
    max() of nut = 2.4092979e-05 at location (1.9686737 0.0038263852 0.5) in cell 499

volFieldValue maxdomain_vector write:
    maxMag() of U = 1.0032422 at location (1.9069548 0.039249867 0.5) in cell 2998

yPlus yplus_stats write:
    patch bottom y+ : min = 59.728274, max = 115.85022, average = 78.631655

Time = 17s

DILUPBiCGStab:  Solving for Ux, Initial residual = 0.0033164112, Final residual = 8.0119851e-09, No Iterations 5
DILUPBiCGStab:  Solving for Uy, Initial residual = 0.016757716, Final residual = 7.0993612e-09, No Iterations 5
DICPCG:  Solving for p, Initial residual = 0.0065417374, Final residual = 6.3496929e-05, No Iterations 64
DICPCG:  Solving for p, Initial residual = 6.1666021e-05, Final residual = 6.0026015e-07, No Iterations 45
DICPCG:  Solving for p, Initial residual = 6.0025559e-07, Final residual = 9.5793952e-09, No Iterations 62
time step continuity errors : sum local = 3.8757883e-10, global = -5.0871182e-12, cumulative = -4.124114e-11
DILUPBiCGStab:  Solving for omega, Initial residual = 0.0054205518, Final residual = 3.4742933e-09, No Iterations 3
DILUPBiCGStab:  Solving for k, Initial residual = 0.0044521322, Final residual = 7.0245036e-09, No Iterations 3
ExecutionTime = 0.509288 s  ClockTime = 1 s



volFieldValue mindomain_scalar write:
    min() of p = -7.4018067e-05 at location (1.9686737 0.0004006648 0.5) in cell 99
    min() of k = 2.6499449e-06 at location (1.9686737 0.91041837 0.5) in cell 7479
    min() of omega = 6.776059 at location (1.9686737 0.91041837 0.5) in cell 7479
    min() of nut = 2.8942756e-08 at location (0.011404732 0.0004006648 0.5) in cell 3

volFieldValue mindomain_vector write:
    minMag() of U = 0.45769453 at location (1.9686737 0.0004006648 0.5) in cell 99

volFieldValue maxdomain_scalar write:
    max() of p = 0.008594627 at location (0.0015663151 0.0004006648 0.5) in cell 0
    max() of k = 0.007627928 at location (0.046893339 0.0004006648 0.5) in cell 12
    max() of omega = 970.85228 at location (0.046893339 0.0004006648 0.5) in cell 12
    max() of nut = 2.6209275e-05 at location (1.9686737 0.0038263852 0.5) in cell 499

volFieldValue maxdomain_vector write:
    maxMag() of U = 1.0033986 at location (1.9069548 0.039249867 0.5) in cell 2998

yPlus yplus_stats write:
    patch bottom y+ : min = 60.31622, max = 115.84946, average = 79.165793

Time = 18s

DILUPBiCGStab:  Solving for Ux, Initial residual = 0.0029992099, Final residual = 6.1740368e-09, No Iterations 5
DILUPBiCGStab:  Solving for Uy, Initial residual = 0.014895267, Final residual = 1.632133e-09, No Iterations 6
DICPCG:  Solving for p, Initial residual = 0.0061819454, Final residual = 5.7885558e-05, No Iterations 64
DICPCG:  Solving for p, Initial residual = 5.6549849e-05, Final residual = 5.6105096e-07, No Iterations 58
DICPCG:  Solving for p, Initial residual = 5.610306e-07, Final residual = 9.5743601e-09, No Iterations 65
time step continuity errors : sum local = 3.9618534e-10, global = 2.6969665e-12, cumulative = -3.8544174e-11
DILUPBiCGStab:  Solving for omega, Initial residual = 0.0043743619, Final residual = 4.7215095e-09, No Iterations 3
DILUPBiCGStab:  Solving for k, Initial residual = 0.0039276061, Final residual = 9.2935331e-09, No Iterations 3
ExecutionTime = 0.532869 s  ClockTime = 1 s



volFieldValue mindomain_scalar write:
    min() of p = -8.4349592e-05 at location (1.9686737 0.0004006648 0.5) in cell 99
    min() of k = 2.4834143e-06 at location (1.9686737 0.91041837 0.5) in cell 7479
    min() of omega = 6.6438961 at location (1.9686737 0.91041837 0.5) in cell 7479
    min() of nut = 2.8599751e-08 at location (0.011404732 0.0004006648 0.5) in cell 3

volFieldValue mindomain_vector write:
    minMag() of U = 0.46245016 at location (1.9686737 0.0004006648 0.5) in cell 99

volFieldValue maxdomain_scalar write:
    max() of p = 0.0086504097 at location (0.0015663151 0.0004006648 0.5) in cell 0
    max() of k = 0.0076262234 at location (0.046893339 0.0004006648 0.5) in cell 12
    max() of omega = 970.68344 at location (0.046893339 0.0004006648 0.5) in cell 12
    max() of nut = 2.8134181e-05 at location (1.9686737 0.0038263852 0.5) in cell 499

volFieldValue maxdomain_vector write:
    maxMag() of U = 1.0035565 at location (1.9069548 0.04136179 0.5) in cell 3098

yPlus yplus_stats write:
    patch bottom y+ : min = 60.843765, max = 115.84912, average = 79.623253

Time = 19s

DILUPBiCGStab:  Solving for Ux, Initial residual = 0.0027263858, Final residual = 4.7813684e-09, No Iterations 5
DILUPBiCGStab:  Solving for Uy, Initial residual = 0.014047619, Final residual = 4.3590846e-09, No Iterations 5
DICPCG:  Solving for p, Initial residual = 0.0058189112, Final residual = 5.7250667e-05, No Iterations 67
DICPCG:  Solving for p, Initial residual = 5.600725e-05, Final residual = 4.7971803e-07, No Iterations 73
DICPCG:  Solving for p, Initial residual = 4.7970061e-07, Final residual = 8.3335711e-09, No Iterations 63
time step continuity errors : sum local = 3.5215925e-10, global = -4.4091232e-12, cumulative = -4.2953297e-11
DILUPBiCGStab:  Solving for omega, Initial residual = 0.0035506977, Final residual = 5.3966249e-09, No Iterations 3
DILUPBiCGStab:  Solving for k, Initial residual = 0.0034804151, Final residual = 5.5622542e-10, No Iterations 3
ExecutionTime = 0.561679 s  ClockTime = 1 s



volFieldValue mindomain_scalar write:
    min() of p = -9.5032689e-05 at location (1.9686737 0.0004006648 0.5) in cell 99
    min() of k = 2.3358988e-06 at location (1.9686737 0.91041837 0.5) in cell 7479
    min() of omega = 6.528938 at location (1.9686737 0.91041837 0.5) in cell 7479
    min() of nut = 2.8479952e-08 at location (0.011404732 0.0004006648 0.5) in cell 3

volFieldValue mindomain_vector write:
    minMag() of U = 0.46687453 at location (1.9686737 0.0004006648 0.5) in cell 99

volFieldValue maxdomain_scalar write:
    max() of p = 0.0087095953 at location (0.0015663151 0.0004006648 0.5) in cell 0
    max() of k = 0.007625274 at location (0.046893339 0.0004006648 0.5) in cell 12
    max() of omega = 970.57498 at location (0.046893339 0.0004006648 0.5) in cell 12
    max() of nut = 3.0149446e-05 at location (1.9686737 0.0047554818 0.5) in cell 599

volFieldValue maxdomain_vector write:
    maxMag() of U = 1.003702 at location (1.9069548 0.04136179 0.5) in cell 3098

yPlus yplus_stats write:
    patch bottom y+ : min = 61.334017, max = 115.8479, average = 80.015373

Time = 20s

DILUPBiCGStab:  Solving for Ux, Initial residual = 0.0025271173, Final residual = 3.5425635e-09, No Iterations 5
DILUPBiCGStab:  Solving for Uy, Initial residual = 0.013172222, Final residual = 9.5697921e-09, No Iterations 5
DICPCG:  Solving for p, Initial residual = 0.0053914141, Final residual = 5.1102658e-05, No Iterations 69
DICPCG:  Solving for p, Initial residual = 5.0177073e-05, Final residual = 4.2075802e-07, No Iterations 73
DICPCG:  Solving for p, Initial residual = 4.2074721e-07, Final residual = 9.9667598e-09, No Iterations 63
time step continuity errors : sum local = 4.2844342e-10, global = 4.0830761e-13, cumulative = -4.2544989e-11
DILUPBiCGStab:  Solving for omega, Initial residual = 0.0028905111, Final residual = 5.9984917e-09, No Iterations 3
DILUPBiCGStab:  Solving for k, Initial residual = 0.003095538, Final residual = 6.8783189e-10, No Iterations 3
ExecutionTime = 0.587443 s  ClockTime = 1 s



volFieldValue mindomain_scalar write:
    min() of p = -0.00010562404 at location (1.9686737 0.0004006648 0.5) in cell 99
    min() of k = 2.2055626e-06 at location (1.9686737 0.91041837 0.5) in cell 7479
    min() of omega = 6.4271292 at location (1.9686737 0.91041837 0.5) in cell 7479
    min() of nut = 2.8432754e-08 at location (0.011404732 0.0004006648 0.5) in cell 3

volFieldValue mindomain_vector write:
    minMag() of U = 0.47107606 at location (1.9686737 0.0004006648 0.5) in cell 99

volFieldValue maxdomain_scalar write:
    max() of p = 0.008763764 at location (0.0015663151 0.0004006648 0.5) in cell 0
    max() of k = 0.0076247588 at location (0.046893339 0.0004006648 0.5) in cell 12
    max() of omega = 970.51456 at location (0.046893339 0.0004006648 0.5) in cell 12
    max() of nut = 3.2176973e-05 at location (1.9686737 0.0047554818 0.5) in cell 599

volFieldValue maxdomain_vector write:
    maxMag() of U = 1.0038217 at location (1.9069548 0.043544233 0.5) in cell 3198

yPlus yplus_stats write:
    patch bottom y+ : min = 61.799095, max = 115.84746, average = 80.351608

Time = 21s

DILUPBiCGStab:  Solving for Ux, Initial residual = 0.0022373387, Final residual = 2.8594973e-09, No Iterations 5
DILUPBiCGStab:  Solving for Uy, Initial residual = 0.011895246, Final residual = 7.6480072e-09, No Iterations 5
DICPCG:  Solving for p, Initial residual = 0.0048163811, Final residual = 4.6226621e-05, No Iterations 70
DICPCG:  Solving for p, Initial residual = 4.5378334e-05, Final residual = 4.0891697e-07, No Iterations 74
DICPCG:  Solving for p, Initial residual = 4.0891178e-07, Final residual = 9.2818082e-09, No Iterations 64
time step continuity errors : sum local = 4.0605527e-10, global = 8.7721037e-12, cumulative = -3.3772886e-11
DILUPBiCGStab:  Solving for omega, Initial residual = 0.0023434934, Final residual = 6.492067e-09, No Iterations 3
DILUPBiCGStab:  Solving for k, Initial residual = 0.0027495806, Final residual = 8.2621247e-10, No Iterations 3
ExecutionTime = 0.612112 s  ClockTime = 1 s



volFieldValue mindomain_scalar write:
    min() of p = -0.00011612501 at location (1.9686737 0.0004006648 0.5) in cell 99
    min() of k = 2.0904881e-06 at location (1.9686737 0.91041837 0.5) in cell 7479
    min() of omega = 6.3352673 at location (1.9686737 0.91041837 0.5) in cell 7479
    min() of nut = 2.8410849e-08 at location (0.011404732 0.0004006648 0.5) in cell 3

volFieldValue mindomain_vector write:
    minMag() of U = 0.47513814 at location (1.9686737 0.0004006648 0.5) in cell 99

volFieldValue maxdomain_scalar write:
    max() of p = 0.0088259738 at location (0.0015663151 0.0004006648 0.5) in cell 0
    max() of k = 0.0076245776 at location (0.046893339 0.0004006648 0.5) in cell 12
    max() of omega = 970.48177 at location (0.046893339 0.0004006648 0.5) in cell 12
    max() of nut = 3.4103965e-05 at location (1.9686737 0.0047554818 0.5) in cell 599

volFieldValue maxdomain_vector write:
    maxMag() of U = 1.0039261 at location (1.9069548 0.043544233 0.5) in cell 3198

yPlus yplus_stats write:
    patch bottom y+ : min = 62.248297, max = 115.8466, average = 80.640735

Time = 22s

DILUPBiCGStab:  Solving for Ux, Initial residual = 0.0020135327, Final residual = 2.7707851e-09, No Iterations 5
DILUPBiCGStab:  Solving for Uy, Initial residual = 0.010325983, Final residual = 9.8023283e-09, No Iterations 5
DICPCG:  Solving for p, Initial residual = 0.0043511877, Final residual = 3.7807822e-05, No Iterations 69
DICPCG:  Solving for p, Initial residual = 3.7207642e-05, Final residual = 3.3926356e-07, No Iterations 57
DICPCG:  Solving for p, Initial residual = 3.3926371e-07, Final residual = 7.8871817e-09, No Iterations 66
time step continuity errors : sum local = 3.5027518e-10, global = 2.3221845e-11, cumulative = -1.0551041e-11
DILUPBiCGStab:  Solving for omega, Initial residual = 0.001905823, Final residual = 6.2719949e-09, No Iterations 3
DILUPBiCGStab:  Solving for k, Initial residual = 0.0024491425, Final residual = 9.5293471e-10, No Iterations 3
ExecutionTime = 0.636624 s  ClockTime = 1 s



volFieldValue mindomain_scalar write:
    min() of p = -0.0001264931 at location (1.9686737 0.0004006648 0.5) in cell 99
    min() of k = 1.9885121e-06 at location (1.9686737 0.91041837 0.5) in cell 7479
    min() of omega = 6.2509089 at location (1.9686737 0.91041837 0.5) in cell 7479
    min() of nut = 2.8399153e-08 at location (0.011404732 0.0004006648 0.5) in cell 3

volFieldValue mindomain_vector write:
    minMag() of U = 0.47912121 at location (1.9686737 0.0004006648 0.5) in cell 99

volFieldValue maxdomain_scalar write:
    max() of p = 0.0088788299 at location (0.0015663151 0.0004006648 0.5) in cell 0
    max() of k = 0.0076245126 at location (0.046893339 0.0004006648 0.5) in cell 12
    max() of omega = 970.47024 at location (0.046893339 0.0004006648 0.5) in cell 12
    max() of nut = 3.5918975e-05 at location (1.9686737 0.0047554818 0.5) in cell 599

volFieldValue maxdomain_vector write:
    maxMag() of U = 1.0039921 at location (1.9069548 0.04579955 0.5) in cell 3298

yPlus yplus_stats write:
    patch bottom y+ : min = 62.688344, max = 115.84678, average = 80.890552

Time = 23s

DILUPBiCGStab:  Solving for Ux, Initial residual = 0.0018580566, Final residual = 2.9148493e-09, No Iterations 5
DILUPBiCGStab:  Solving for Uy, Initial residual = 0.0089647484, Final residual = 4.4625532e-09, No Iterations 5
DICPCG:  Solving for p, Initial residual = 0.004050743, Final residual = 3.7758682e-05, No Iterations 68
DICPCG:  Solving for p, Initial residual = 3.733993e-05, Final residual = 3.6307683e-07, No Iterations 58
DICPCG:  Solving for p, Initial residual = 3.6307537e-07, Final residual = 9.2706976e-09, No Iterations 65
time step continuity errors : sum local = 4.1594564e-10, global = -2.7427121e-11, cumulative = -3.7978162e-11
DILUPBiCGStab:  Solving for omega, Initial residual = 0.0015551537, Final residual = 6.1645164e-09, No Iterations 3
DILUPBiCGStab:  Solving for k, Initial residual = 0.0021809474, Final residual = 1.0761917e-09, No Iterations 3
ExecutionTime = 0.660626 s  ClockTime = 1 s



volFieldValue mindomain_scalar write:
    min() of p = -0.00013677777 at location (1.9686737 0.0004006648 0.5) in cell 99
    min() of k = 1.8971848e-06 at location (1.9686737 0.91041837 0.5) in cell 7479
    min() of omega = 6.1723109 at location (1.9686737 0.91041837 0.5) in cell 7479
    min() of nut = 2.8389313e-08 at location (0.011404732 0.0004006648 0.5) in cell 3

volFieldValue mindomain_vector write:
    minMag() of U = 0.48304557 at location (1.9686737 0.0004006648 0.5) in cell 99

volFieldValue maxdomain_scalar write:
    max() of p = 0.0089132989 at location (0.0015663151 0.0004006648 0.5) in cell 0
    max() of k = 0.0076245977 at location (0.046893339 0.0004006648 0.5) in cell 12
    max() of omega = 970.46611 at location (0.046893339 0.0004006648 0.5) in cell 12
    max() of nut = 3.7828959e-05 at location (1.9686737 0.0057156019 0.5) in cell 699

volFieldValue maxdomain_vector write:
    maxMag() of U = 1.0040433 at location (1.9686737 0.06677532 0.5) in cell 4099

yPlus yplus_stats write:
    patch bottom y+ : min = 63.121506, max = 115.84682, average = 81.107346

Time = 24s

DILUPBiCGStab:  Solving for Ux, Initial residual = 0.0016895866, Final residual = 2.9896106e-09, No Iterations 5
DILUPBiCGStab:  Solving for Uy, Initial residual = 0.0079280732, Final residual = 5.9704404e-09, No Iterations 5
DICPCG:  Solving for p, Initial residual = 0.0037973241, Final residual = 3.3306266e-05, No Iterations 67
DICPCG:  Solving for p, Initial residual = 3.3068946e-05, Final residual = 2.5684609e-07, No Iterations 71
DICPCG:  Solving for p, Initial residual = 2.5683806e-07, Final residual = 9.3154278e-09, No Iterations 25
time step continuity errors : sum local = 4.2059078e-10, global = -9.6968537e-11, cumulative = -1.349467e-10
DILUPBiCGStab:  Solving for omega, Initial residual = 0.0012642975, Final residual = 6.2674007e-09, No Iterations 3
DILUPBiCGStab:  Solving for k, Initial residual = 0.0019403484, Final residual = 1.183742e-09, No Iterations 3
ExecutionTime = 0.684118 s  ClockTime = 1 s



volFieldValue mindomain_scalar write:
    min() of p = -0.00014675898 at location (1.9686737 0.0004006648 0.5) in cell 99
    min() of k = 1.8138536e-06 at location (1.9686737 0.91041837 0.5) in cell 7479
    min() of omega = 6.0983749 at location (1.9686737 0.91041837 0.5) in cell 7479
    min() of nut = 2.8377015e-08 at location (0.011404732 0.0004006648 0.5) in cell 3

volFieldValue mindomain_vector write:
    minMag() of U = 0.4868976 at location (1.9686737 0.0004006648 0.5) in cell 99

volFieldValue maxdomain_scalar write:
    max() of p = 0.0089329305 at location (0.0015663151 0.0004006648 0.5) in cell 0
    max() of k = 0.0076246665 at location (0.046893339 0.0004006648 0.5) in cell 12
    max() of omega = 970.47152 at location (0.046893339 0.0004006648 0.5) in cell 12
    max() of nut = 3.9800454e-05 at location (1.9686737 0.0057156019 0.5) in cell 699

volFieldValue maxdomain_vector write:
    maxMag() of U = 1.0040757 at location (1.9686737 0.063842231 0.5) in cell 3999

yPlus yplus_stats write:
    patch bottom y+ : min = 63.546303, max = 115.84732, average = 81.296679

Time = 25s

DILUPBiCGStab:  Solving for Ux, Initial residual = 0.0015745751, Final residual = 2.754659e-09, No Iterations 5
DILUPBiCGStab:  Solving for Uy, Initial residual = 0.0073679184, Final residual = 6.63478e-09, No Iterations 5
DICPCG:  Solving for p, Initial residual = 0.0036316257, Final residual = 3.5558734e-05, No Iterations 63
DICPCG:  Solving for p, Initial residual = 3.5364046e-05, Final residual = 3.3428356e-07, No Iterations 74
DICPCG:  Solving for p, Initial residual = 3.3425872e-07, Final residual = 9.9305841e-09, No Iterations 43
time step continuity errors : sum local = 4.5050197e-10, global = -1.568358e-11, cumulative = -1.5063028e-10
DILUPBiCGStab:  Solving for omega, Initial residual = 0.0010313994, Final residual = 5.8952053e-09, No Iterations 3
DILUPBiCGStab:  Solving for k, Initial residual = 0.0017277448, Final residual = 1.2565754e-09, No Iterations 3
ExecutionTime = 0.70714 s  ClockTime = 1 s



volFieldValue mindomain_scalar write:
    min() of p = -0.00015571729 at location (1.9686737 0.0004006648 0.5) in cell 99
    min() of k = 1.7358533e-06 at location (1.9686737 0.91041837 0.5) in cell 7479
    min() of omega = 6.0285736 at location (1.9686737 0.91041837 0.5) in cell 7479
    min() of nut = 2.8369512e-08 at location (0.011404732 0.0004006648 0.5) in cell 3

volFieldValue mindomain_vector write:
    minMag() of U = 0.49064128 at location (1.9686737 0.0004006648 0.5) in cell 99

volFieldValue maxdomain_scalar write:
    max() of p = 0.0089478048 at location (0.0015663151 0.0004006648 0.5) in cell 0
    max() of k = 0.0076246774 at location (0.046893339 0.0004006648 0.5) in cell 12
    max() of omega = 970.4759 at location (0.046893339 0.0004006648 0.5) in cell 12
    max() of nut = 4.1706278e-05 at location (1.9686737 0.0057156019 0.5) in cell 699

volFieldValue maxdomain_vector write:
    maxMag() of U = 1.0040899 at location (1.9686737 0.069806347 0.5) in cell 4199

yPlus yplus_stats write:
    patch bottom y+ : min = 63.95879, max = 115.84765, average = 81.462896

Time = 26s

DILUPBiCGStab:  Solving for Ux, Initial residual = 0.0014682107, Final residual = 2.265183e-09, No Iterations 5
DILUPBiCGStab:  Solving for Uy, Initial residual = 0.0070060197, Final residual = 9.5463911e-10, No Iterations 6
DICPCG:  Solving for p, Initial residual = 0.0035473875, Final residual = 3.1061483e-05, No Iterations 60
DICPCG:  Solving for p, Initial residual = 3.0936097e-05, Final residual = 2.7529735e-07, No Iterations 76
DICPCG:  Solving for p, Initial residual = 2.7527987e-07, Final residual = 9.7456574e-09, No Iterations 22
time step continuity errors : sum local = 4.4361681e-10, global = -6.1524695e-11, cumulative = -2.1215497e-10
DILUPBiCGStab:  Solving for omega, Initial residual = 0.00084085714, Final residual = 5.8165713e-09, No Iterations 3
DILUPBiCGStab:  Solving for k, Initial residual = 0.0015359226, Final residual = 1.290739e-09, No Iterations 3
ExecutionTime = 0.729695 s  ClockTime = 1 s



volFieldValue mindomain_scalar write:
    min() of p = -0.00016421259 at location (1.9686737 0.0004006648 0.5) in cell 99
    min() of k = 1.6607576e-06 at location (1.9686737 0.91041837 0.5) in cell 7479
    min() of omega = 5.9628488 at location (1.9686737 0.91041837 0.5) in cell 7479
    min() of nut = 2.836454e-08 at location (0.011404732 0.0004006648 0.5) in cell 3

volFieldValue mindomain_vector write:
    minMag() of U = 0.49424554 at location (1.9686737 0.0004006648 0.5) in cell 99

volFieldValue maxdomain_scalar write:
    max() of p = 0.0089584929 at location (0.0015663151 0.0004006648 0.5) in cell 0
    max() of k = 0.0076246622 at location (0.046893339 0.0004006648 0.5) in cell 12
    max() of omega = 970.47659 at location (0.046893339 0.0004006648 0.5) in cell 12
    max() of nut = 4.3531723e-05 at location (1.9686737 0.0057156019 0.5) in cell 699

volFieldValue maxdomain_vector write:
    maxMag() of U = 1.0040904 at location (1.9686737 0.069806347 0.5) in cell 4199

yPlus yplus_stats write:
    patch bottom y+ : min = 64.355585, max = 115.84812, average = 81.609484

Time = 27s

DILUPBiCGStab:  Solving for Ux, Initial residual = 0.0013813551, Final residual = 1.4961156e-09, No Iterations 5
DILUPBiCGStab:  Solving for Uy, Initial residual = 0.0067427709, Final residual = 8.5049553e-09, No Iterations 5
DICPCG:  Solving for p, Initial residual = 0.003509844, Final residual = 3.3410616e-05, No Iterations 56
DICPCG:  Solving for p, Initial residual = 3.3300195e-05, Final residual = 3.3032569e-07, No Iterations 72
DICPCG:  Solving for p, Initial residual = 3.3029358e-07, Final residual = 9.3811906e-09, No Iterations 28
time step continuity errors : sum local = 4.2828243e-10, global = -5.9455046e-11, cumulative = -2.7161002e-10
DILUPBiCGStab:  Solving for omega, Initial residual = 0.0006835979, Final residual = 5.6621328e-09, No Iterations 3
DILUPBiCGStab:  Solving for k, Initial residual = 0.0013653972, Final residual = 1.3030138e-09, No Iterations 3
ExecutionTime = 0.750914 s  ClockTime = 1 s



volFieldValue mindomain_scalar write:
    min() of p = -0.00017437042 at location (1.9686737 0.0004006648 0.5) in cell 99
    min() of k = 1.5866374e-06 at location (1.9686737 0.91041837 0.5) in cell 7479
    min() of omega = 5.9014801 at location (1.9686737 0.91041837 0.5) in cell 7479
    min() of nut = 2.8361037e-08 at location (0.011404732 0.0004006648 0.5) in cell 3

volFieldValue mindomain_vector write:
    minMag() of U = 0.49768907 at location (1.9686737 0.0004006648 0.5) in cell 99

volFieldValue maxdomain_scalar write:
    max() of p = 0.0089665512 at location (0.0015663151 0.0004006648 0.5) in cell 0
    max() of k = 0.0076246337 at location (0.046893339 0.0004006648 0.5) in cell 12
    max() of omega = 970.47563 at location (0.046893339 0.0004006648 0.5) in cell 12
    max() of nut = 4.5403361e-05 at location (1.9686737 0.0067077814 0.5) in cell 799

volFieldValue maxdomain_vector write:
    maxMag() of U = 1.0040814 at location (1.9686737 0.072938584 0.5) in cell 4299

yPlus yplus_stats write:
    patch bottom y+ : min = 64.734382, max = 115.84838, average = 81.73924

Time = 28s

DILUPBiCGStab:  Solving for Ux, Initial residual = 0.0013165423, Final residual = 7.8982333e-09, No Iterations 4
DILUPBiCGStab:  Solving for Uy, Initial residual = 0.0064869158, Final residual = 7.4856355e-09, No Iterations 5
DICPCG:  Solving for p, Initial residual = 0.0034310937, Final residual = 3.3578598e-05, No Iterations 51
DICPCG:  Solving for p, Initial residual = 3.3491418e-05, Final residual = 2.9948683e-07, No Iterations 66
DICPCG:  Solving for p, Initial residual = 2.9943985e-07, Final residual = 9.8062697e-09, No Iterations 27
time step continuity errors : sum local = 4.4873897e-10, global = -6.6872086e-12, cumulative = -2.7829723e-10
DILUPBiCGStab:  Solving for omega, Initial residual = 0.00055858047, Final residual = 5.3099576e-09, No Iterations 3
DILUPBiCGStab:  Solving for k, Initial residual = 0.0012149943, Final residual = 1.293981e-09, No Iterations 3
ExecutionTime = 0.772197 s  ClockTime = 1 s



volFieldValue mindomain_scalar write:
    min() of p = -0.00018654053 at location (1.9686737 0.0004006648 0.5) in cell 99
    min() of k = 1.5122639e-06 at location (1.9686737 0.91041837 0.5) in cell 7479
    min() of omega = 5.8449376 at location (1.9686737 0.91041837 0.5) in cell 7479
    min() of nut = 2.8359887e-08 at location (0.011404732 0.0004006648 0.5) in cell 3

volFieldValue mindomain_vector write:
    minMag() of U = 0.50095718 at location (1.9686737 0.0004006648 0.5) in cell 99

volFieldValue maxdomain_scalar write:
    max() of p = 0.0089717949 at location (0.0015663151 0.0004006648 0.5) in cell 0
    max() of k = 0.0076245952 at location (0.046893339 0.0004006648 0.5) in cell 12
    max() of omega = 970.47381 at location (0.046893339 0.0004006648 0.5) in cell 12
    max() of nut = 4.7344165e-05 at location (1.9686737 0.0067077814 0.5) in cell 799

volFieldValue maxdomain_vector write:
    maxMag() of U = 1.0040681 at location (1.9686737 0.076175409 0.5) in cell 4399

yPlus yplus_stats write:
    patch bottom y+ : min = 65.093613, max = 115.84892, average = 81.85452

Time = 29s

DILUPBiCGStab:  Solving for Ux, Initial residual = 0.0012586518, Final residual = 9.6689107e-10, No Iterations 5
DILUPBiCGStab:  Solving for Uy, Initial residual = 0.006279728, Final residual = 4.308016e-09, No Iterations 5
DICPCG:  Solving for p, Initial residual = 0.0033577286, Final residual = 3.3258975e-05, No Iterations 49
DICPCG:  Solving for p, Initial residual = 3.3198453e-05, Final residual = 3.2064986e-07, No Iterations 73
DICPCG:  Solving for p, Initial residual = 3.2059249e-07, Final residual = 7.9930298e-09, No Iterations 28
time step continuity errors : sum local = 3.6634383e-10, global = -3.3537758e-11, cumulative = -3.1183499e-10
DILUPBiCGStab:  Solving for omega, Initial residual = 0.0004554967, Final residual = 4.9227929e-09, No Iterations 3
DILUPBiCGStab:  Solving for k, Initial residual = 0.0010825909, Final residual = 1.2263808e-09, No Iterations 3
ExecutionTime = 0.793291 s  ClockTime = 1 s



volFieldValue mindomain_scalar write:
    min() of p = -0.00019993973 at location (1.9686737 0.0004006648 0.5) in cell 99
    min() of k = 1.4372109e-06 at location (1.9686737 0.91041837 0.5) in cell 7479
    min() of omega = 5.793733 at location (1.9686737 0.91041837 0.5) in cell 7479
    min() of nut = 2.835975e-08 at location (0.011404732 0.0004006648 0.5) in cell 3

volFieldValue mindomain_vector write:
    minMag() of U = 0.50403479 at location (1.9686737 0.0004006648 0.5) in cell 99

volFieldValue maxdomain_scalar write:
    max() of p = 0.0089748357 at location (0.0015663151 0.0004006648 0.5) in cell 0
    max() of k = 0.0076245421 at location (0.046893339 0.0004006648 0.5) in cell 12
    max() of omega = 970.47136 at location (0.046893339 0.0004006648 0.5) in cell 12
    max() of nut = 4.9224691e-05 at location (1.9686737 0.0067077814 0.5) in cell 799

volFieldValue maxdomain_vector write:
    maxMag() of U = 1.0040544 at location (1.9686737 0.076175409 0.5) in cell 4399

yPlus yplus_stats write:
    patch bottom y+ : min = 65.431665, max = 115.84908, average = 81.957238

Time = 30s

DILUPBiCGStab:  Solving for Ux, Initial residual = 0.0012118832, Final residual = 1.1391184e-09, No Iterations 5
DILUPBiCGStab:  Solving for Uy, Initial residual = 0.0061015345, Final residual = 3.7875715e-09, No Iterations 5
DICPCG:  Solving for p, Initial residual = 0.0032927128, Final residual = 3.0989462e-05, No Iterations 19
DICPCG:  Solving for p, Initial residual = 3.0984522e-05, Final residual = 2.6834829e-07, No Iterations 71
DICPCG:  Solving for p, Initial residual = 2.6814442e-07, Final residual = 8.1201684e-09, No Iterations 23
time step continuity errors : sum local = 3.7235911e-10, global = -2.1192861e-11, cumulative = -3.3302785e-10
DILUPBiCGStab:  Solving for omega, Initial residual = 0.00037383274, Final residual = 4.4904227e-09, No Iterations 3
DILUPBiCGStab:  Solving for k, Initial residual = 0.00096599342, Final residual = 1.1409763e-09, No Iterations 3
ExecutionTime = 0.815308 s  ClockTime = 1 s



volFieldValue mindomain_scalar write:
    min() of p = -0.00021363661 at location (1.9686737 0.0004006648 0.5) in cell 99
    min() of k = 1.3618323e-06 at location (1.9686737 0.91041837 0.5) in cell 7479
    min() of omega = 5.7482914 at location (1.9686737 0.91041837 0.5) in cell 7479
    min() of nut = 2.8359924e-08 at location (0.011404732 0.0004006648 0.5) in cell 3

volFieldValue mindomain_vector write:
    minMag() of U = 0.50690826 at location (1.9686737 0.0004006648 0.5) in cell 99

volFieldValue maxdomain_scalar write:
    max() of p = 0.0089732528 at location (0.0015663151 0.0004006648 0.5) in cell 0
    max() of k = 0.0076244809 at location (0.046893339 0.0004006648 0.5) in cell 12
    max() of omega = 970.46798 at location (0.046893339 0.0004006648 0.5) in cell 12
    max() of nut = 5.1025898e-05 at location (1.9686737 0.0067077814 0.5) in cell 799

volFieldValue maxdomain_vector write:
    maxMag() of U = 1.0040432 at location (1.9686737 0.079520315 0.5) in cell 4499

yPlus yplus_stats write:
    patch bottom y+ : min = 65.747087, max = 115.84944, average = 82.049008

Time = 31s

DILUPBiCGStab:  Solving for Ux, Initial residual = 0.0011614014, Final residual = 6.6801208e-09, No Iterations 4
DILUPBiCGStab:  Solving for Uy, Initial residual = 0.0058684132, Final residual = 3.1514431e-09, No Iterations 5
DICPCG:  Solving for p, Initial residual = 0.0032152023, Final residual = 2.7325891e-05, No Iterations 19
DICPCG:  Solving for p, Initial residual = 2.7323544e-05, Final residual = 2.54533e-07, No Iterations 72
DICPCG:  Solving for p, Initial residual = 2.5444877e-07, Final residual = 9.5344349e-09, No Iterations 19
time step continuity errors : sum local = 4.3722192e-10, global = -6.3825203e-13, cumulative = -3.336661e-10
DILUPBiCGStab:  Solving for omega, Initial residual = 0.00030673494, Final residual = 4.0875168e-09, No Iterations 3
DILUPBiCGStab:  Solving for k, Initial residual = 0.00086393566, Final residual = 1.0452194e-09, No Iterations 3
ExecutionTime = 0.83436 s  ClockTime = 1 s



volFieldValue mindomain_scalar write:
    min() of p = -0.00022714788 at location (1.9686737 0.0004006648 0.5) in cell 99
    min() of k = 1.2871209e-06 at location (1.9686737 0.91041837 0.5) in cell 7479
    min() of omega = 5.7088554 at location (1.9686737 0.91041837 0.5) in cell 7479
    min() of nut = 2.8360021e-08 at location (0.011404732 0.0004006648 0.5) in cell 3

volFieldValue mindomain_vector write:
    minMag() of U = 0.50957631 at location (1.9686737 0.0004006648 0.5) in cell 99

volFieldValue maxdomain_scalar write:
    max() of p = 0.0089700433 at location (0.0015663151 0.0004006648 0.5) in cell 0
    max() of k = 0.0076244143 at location (0.046893339 0.0004006648 0.5) in cell 12
    max() of omega = 970.46409 at location (0.046893339 0.0004006648 0.5) in cell 12
    max() of nut = 5.2728475e-05 at location (1.9686737 0.0067077814 0.5) in cell 799

volFieldValue maxdomain_vector write:
    maxMag() of U = 1.0040356 at location (1.9686737 0.079520315 0.5) in cell 4499

yPlus yplus_stats write:
    patch bottom y+ : min = 66.039781, max = 115.84978, average = 82.131165

Time = 32s

DILUPBiCGStab:  Solving for Ux, Initial residual = 0.001096922, Final residual = 3.6945205e-09, No Iterations 4
DILUPBiCGStab:  Solving for Uy, Initial residual = 0.0053934986, Final residual = 9.4587556e-09, No Iterations 4
DICPCG:  Solving for p, Initial residual = 0.0031041052, Final residual = 2.6263642e-05, No Iterations 38
DICPCG:  Solving for p, Initial residual = 2.6275276e-05, Final residual = 2.5935723e-07, No Iterations 71
DICPCG:  Solving for p, Initial residual = 2.5957244e-07, Final residual = 9.4383992e-09, No Iterations 30
time step continuity errors : sum local = 4.3209237e-10, global = -2.4294459e-11, cumulative = -3.5796056e-10
DILUPBiCGStab:  Solving for omega, Initial residual = 0.00025246617, Final residual = 3.7822961e-09, No Iterations 3
DILUPBiCGStab:  Solving for k, Initial residual = 0.0007740026, Final residual = 9.5676616e-10, No Iterations 3
ExecutionTime = 0.854953 s  ClockTime = 1 s



volFieldValue mindomain_scalar write:
    min() of p = -0.00024002136 at location (1.9686737 0.0004006648 0.5) in cell 99
    min() of k = 1.2144817e-06 at location (1.9686737 0.91041837 0.5) in cell 7479
    min() of omega = 5.675435 at location (1.9686737 0.91041837 0.5) in cell 7479
    min() of nut = 2.8360047e-08 at location (0.011404732 0.0004006648 0.5) in cell 3

volFieldValue mindomain_vector write:
    minMag() of U = 0.51204525 at location (1.9686737 0.0004006648 0.5) in cell 99

volFieldValue maxdomain_scalar write:
    max() of p = 0.0089573308 at location (0.0015663151 0.0004006648 0.5) in cell 0
    max() of k = 0.0076243365 at location (0.046893339 0.0004006648 0.5) in cell 12
    max() of omega = 970.45985 at location (0.046893339 0.0004006648 0.5) in cell 12
    max() of nut = 5.4529602e-05 at location (1.9686737 0.0077330908 0.5) in cell 899

volFieldValue maxdomain_vector write:
    maxMag() of U = 1.0040318 at location (1.9686737 0.082976911 0.5) in cell 4599

yPlus yplus_stats write:
    patch bottom y+ : min = 66.310479, max = 115.8499, average = 82.204773

Time = 33s

DILUPBiCGStab:  Solving for Ux, Initial residual = 0.001051351, Final residual = 2.6180594e-09, No Iterations 4
DILUPBiCGStab:  Solving for Uy, Initial residual = 0.0049574694, Final residual = 7.6536648e-09, No Iterations 4
DICPCG:  Solving for p, Initial residual = 0.0030560994, Final residual = 2.8006548e-05, No Iterations 58
DICPCG:  Solving for p, Initial residual = 2.8061743e-05, Final residual = 2.5198448e-07, No Iterations 74
DICPCG:  Solving for p, Initial residual = 2.5200201e-07, Final residual = 9.5801749e-09, No Iterations 25
time step continuity errors : sum local = 4.3752786e-10, global = -2.2916706e-12, cumulative = -3.6025223e-10
DILUPBiCGStab:  Solving for omega, Initial residual = 0.0002089837, Final residual = 3.4455355e-09, No Iterations 3
DILUPBiCGStab:  Solving for k, Initial residual = 0.00069508451, Final residual = 8.8722299e-10, No Iterations 3
ExecutionTime = 0.878382 s  ClockTime = 1 s



volFieldValue mindomain_scalar write:
    min() of p = -0.00025186885 at location (1.9686737 0.0004006648 0.5) in cell 99
    min() of k = 1.1454685e-06 at location (1.9686737 0.91041837 0.5) in cell 7479
    min() of omega = 5.6478007 at location (1.9686737 0.91041837 0.5) in cell 7479
    min() of nut = 2.8360128e-08 at location (0.011404732 0.0004006648 0.5) in cell 3

volFieldValue mindomain_vector write:
    minMag() of U = 0.51432675 at location (1.9686737 0.0004006648 0.5) in cell 99

volFieldValue maxdomain_scalar write:
    max() of p = 0.0089385694 at location (0.0015663151 0.0004006648 0.5) in cell 0
    max() of k = 0.0076242415 at location (0.046893339 0.0004006648 0.5) in cell 12
    max() of omega = 970.4549 at location (0.046893339 0.0004006648 0.5) in cell 12
    max() of nut = 5.6258761e-05 at location (1.9686737 0.0077330908 0.5) in cell 899

volFieldValue maxdomain_vector write:
    maxMag() of U = 1.0040311 at location (1.9686737 0.082976911 0.5) in cell 4599

yPlus yplus_stats write:
    patch bottom y+ : min = 66.560497, max = 115.8501, average = 82.27082

Time = 34s

DILUPBiCGStab:  Solving for Ux, Initial residual = 0.00098553402, Final residual = 2.3775351e-09, No Iterations 4
DILUPBiCGStab:  Solving for Uy, Initial residual = 0.0044126812, Final residual = 6.3490944e-09, No Iterations 4
DICPCG:  Solving for p, Initial residual = 0.0030590461, Final residual = 2.9330461e-05, No Iterations 63
DICPCG:  Solving for p, Initial residual = 2.9452413e-05, Final residual = 2.8036912e-07, No Iterations 72
DICPCG:  Solving for p, Initial residual = 2.8039299e-07, Final residual = 9.6797938e-09, No Iterations 33
time step continuity errors : sum local = 4.3996924e-10, global = 5.476784e-11, cumulative = -3.0548439e-10
DILUPBiCGStab:  Solving for omega, Initial residual = 0.00017395379, Final residual = 3.1427664e-09, No Iterations 3
DILUPBiCGStab:  Solving for k, Initial residual = 0.00062516326, Final residual = 8.1676973e-10, No Iterations 3
ExecutionTime = 0.905297 s  ClockTime = 1 s



volFieldValue mindomain_scalar write:
    min() of p = -0.0002625925 at location (1.9686737 0.0004006648 0.5) in cell 99
    min() of k = 1.0815353e-06 at location (1.9686737 0.91041837 0.5) in cell 7479
    min() of omega = 5.6255146 at location (1.9686737 0.91041837 0.5) in cell 7479
    min() of nut = 2.8360098e-08 at location (0.011404732 0.0004006648 0.5) in cell 3

volFieldValue mindomain_vector write:
    minMag() of U = 0.51643311 at location (1.9686737 0.0004006648 0.5) in cell 99

volFieldValue maxdomain_scalar write:
    max() of p = 0.0089064519 at location (0.0015663151 0.0004006648 0.5) in cell 0
    max() of k = 0.0076241145 at location (0.046893339 0.0004006648 0.5) in cell 12
    max() of omega = 970.44885 at location (0.046893339 0.0004006648 0.5) in cell 12
    max() of nut = 5.7901672e-05 at location (1.9686737 0.0077330908 0.5) in cell 899

volFieldValue maxdomain_vector write:
    maxMag() of U = 1.0040321 at location (1.9686737 0.082976911 0.5) in cell 4599

yPlus yplus_stats write:
    patch bottom y+ : min = 66.791213, max = 115.84995, average = 82.330055

Time = 35s

DILUPBiCGStab:  Solving for Ux, Initial residual = 0.00094820395, Final residual = 2.3716998e-09, No Iterations 4
DILUPBiCGStab:  Solving for Uy, Initial residual = 0.0046028322, Final residual = 5.8611277e-09, No Iterations 4
DICPCG:  Solving for p, Initial residual = 0.0029537672, Final residual = 2.6969686e-05, No Iterations 36
DICPCG:  Solving for p, Initial residual = 2.6972443e-05, Final residual = 2.2254476e-07, No Iterations 76
DICPCG:  Solving for p, Initial residual = 2.2261783e-07, Final residual = 9.4534962e-09, No Iterations 28
time step continuity errors : sum local = 4.2924402e-10, global = 1.7628765e-11, cumulative = -2.8785562e-10
DILUPBiCGStab:  Solving for omega, Initial residual = 0.00014554874, Final residual = 2.8939705e-09, No Iterations 3
DILUPBiCGStab:  Solving for k, Initial residual = 0.0005622824, Final residual = 9.1776911e-09, No Iterations 3
ExecutionTime = 0.925795 s  ClockTime = 1 s



volFieldValue mindomain_scalar write:
    min() of p = -0.00027209773 at location (1.9686737 0.0004006648 0.5) in cell 99
    min() of k = 1.0238415e-06 at location (1.9686737 0.91041837 0.5) in cell 7479
    min() of omega = 5.6079862 at location (1.9686737 0.91041837 0.5) in cell 7479
    min() of nut = 2.8360196e-08 at location (0.011404732 0.0004006648 0.5) in cell 3

volFieldValue mindomain_vector write:
    minMag() of U = 0.5183771 at location (1.9686737 0.0004006648 0.5) in cell 99

volFieldValue maxdomain_scalar write:
    max() of p = 0.0088990644 at location (0.0015663151 0.0004006648 0.5) in cell 0
    max() of k = 0.0076239832 at location (0.046893339 0.0004006648 0.5) in cell 12
    max() of omega = 970.44077 at location (0.046893339 0.0004006648 0.5) in cell 12
    max() of nut = 5.9436014e-05 at location (1.9686737 0.0077330908 0.5) in cell 899

volFieldValue maxdomain_vector write:
    maxMag() of U = 1.0040338 at location (1.9686737 0.086548926 0.5) in cell 4699

yPlus yplus_stats write:
    patch bottom y+ : min = 67.004051, max = 115.84962, average = 82.383433

Time = 36s

DILUPBiCGStab:  Solving for Ux, Initial residual = 0.00090105643, Final residual = 2.384813e-09, No Iterations 4
DILUPBiCGStab:  Solving for Uy, Initial residual = 0.0047021219, Final residual = 5.7676325e-09, No Iterations 4
DICPCG:  Solving for p, Initial residual = 0.002782503, Final residual = 2.5850883e-05, No Iterations 48
DICPCG:  Solving for p, Initial residual = 2.5875594e-05, Final residual = 2.4069121e-07, No Iterations 72
DICPCG:  Solving for p, Initial residual = 2.4079918e-07, Final residual = 8.6629171e-09, No Iterations 27
time step continuity errors : sum local = 3.9257295e-10, global = -2.5844589e-11, cumulative = -3.1370021e-10
DILUPBiCGStab:  Solving for omega, Initial residual = 0.00012291194, Final residual = 2.629153e-09, No Iterations 3
DILUPBiCGStab:  Solving for k, Initial residual = 0.00050599072, Final residual = 8.2486753e-09, No Iterations 3
ExecutionTime = 0.946532 s  ClockTime = 1 s



volFieldValue mindomain_scalar write:
    min() of p = -0.00028057221 at location (1.9686737 0.0004006648 0.5) in cell 99
    min() of k = 9.7313641e-07 at location (1.9686737 0.91041837 0.5) in cell 7479
    min() of omega = 5.5945378 at location (1.9686737 0.91041837 0.5) in cell 7479
    min() of nut = 2.8360326e-08 at location (0.011404732 0.0004006648 0.5) in cell 3

volFieldValue mindomain_vector write:
    minMag() of U = 0.5201735 at location (1.9686737 0.0004006648 0.5) in cell 99

volFieldValue maxdomain_scalar write:
    max() of p = 0.0088907276 at location (0.0015663151 0.0004006648 0.5) in cell 0
    max() of k = 0.0076238588 at location (0.046893339 0.0004006648 0.5) in cell 12
    max() of omega = 970.43242 at location (0.046893339 0.0004006648 0.5) in cell 12
    max() of nut = 6.0854403e-05 at location (1.9686737 0.0077330908 0.5) in cell 899

volFieldValue maxdomain_vector write:
    maxMag() of U = 1.0040341 at location (1.9686737 0.086548926 0.5) in cell 4699

yPlus yplus_stats write:
    patch bottom y+ : min = 67.200652, max = 115.84919, average = 82.431549

Time = 37s

DILUPBiCGStab:  Solving for Ux, Initial residual = 0.00083684251, Final residual = 2.3223723e-09, No Iterations 4
DILUPBiCGStab:  Solving for Uy, Initial residual = 0.0046187623, Final residual = 5.7892919e-09, No Iterations 4
DICPCG:  Solving for p, Initial residual = 0.0024987458, Final residual = 2.4561297e-05, No Iterations 55
DICPCG:  Solving for p, Initial residual = 2.4453775e-05, Final residual = 2.4106643e-07, No Iterations 69
DICPCG:  Solving for p, Initial residual = 2.4104373e-07, Final residual = 8.9115411e-09, No Iterations 21
time step continuity errors : sum local = 4.0548597e-10, global = -3.6877788e-11, cumulative = -3.50578e-10
DILUPBiCGStab:  Solving for omega, Initial residual = 0.0001046609, Final residual = 2.427186e-09, No Iterations 3
DILUPBiCGStab:  Solving for k, Initial residual = 0.00045595747, Final residual = 7.4168788e-09, No Iterations 3
ExecutionTime = 0.968694 s  ClockTime = 1 s



volFieldValue mindomain_scalar write:
    min() of p = -0.0002878237 at location (1.9686737 0.0004006648 0.5) in cell 99
    min() of k = 9.2972248e-07 at location (1.9686737 0.91041837 0.5) in cell 7479
    min() of omega = 5.5844695 at location (1.9686737 0.91041837 0.5) in cell 7479
    min() of nut = 2.8360577e-08 at location (0.011404732 0.0004006648 0.5) in cell 3

volFieldValue mindomain_vector write:
    minMag() of U = 0.52183737 at location (1.9686737 0.0004006648 0.5) in cell 99

volFieldValue maxdomain_scalar write:
    max() of p = 0.0089135397 at location (0.0015663151 0.0004006648 0.5) in cell 0
    max() of k = 0.0076237718 at location (0.046893339 0.0004006648 0.5) in cell 12
    max() of omega = 970.4245 at location (0.046893339 0.0004006648 0.5) in cell 12
    max() of nut = 6.2157423e-05 at location (1.9686737 0.0077330908 0.5) in cell 899

volFieldValue maxdomain_vector write:
    maxMag() of U = 1.0040348 at location (1.9686737 0.086548926 0.5) in cell 4699

yPlus yplus_stats write:
    patch bottom y+ : min = 67.382681, max = 115.84891, average = 82.475173

Time = 38s

DILUPBiCGStab:  Solving for Ux, Initial residual = 0.0007420879, Final residual = 2.2070031e-09, No Iterations 4
DILUPBiCGStab:  Solving for Uy, Initial residual = 0.0040467089, Final residual = 5.6462915e-09, No Iterations 4
DICPCG:  Solving for p, Initial residual = 0.002252191, Final residual = 2.1225159e-05, No Iterations 60
DICPCG:  Solving for p, Initial residual = 2.1160139e-05, Final residual = 1.5867817e-07, No Iterations 73
DICPCG:  Solving for p, Initial residual = 1.5867001e-07, Final residual = 8.3901778e-09, No Iterations 17
time step continuity errors : sum local = 3.8283008e-10, global = -2.2183866e-11, cumulative = -3.7276187e-10
DILUPBiCGStab:  Solving for omega, Initial residual = 8.9520026e-05, Final residual = 2.1902192e-09, No Iterations 3
DILUPBiCGStab:  Solving for k, Initial residual = 0.00041111536, Final residual = 6.6448098e-09, No Iterations 3
ExecutionTime = 0.991451 s  ClockTime = 1 s



volFieldValue mindomain_scalar write:
    min() of p = -0.00029431233 at location (1.9686737 0.0004006648 0.5) in cell 99
    min() of k = 8.9348691e-07 at location (1.9686737 0.91041837 0.5) in cell 7479
    min() of omega = 5.5771094 at location (1.9686737 0.91041837 0.5) in cell 7479
[...]
DICPCG:  Solving for p, Initial residual = 1.0704165e-07, Final residual = 7.8615155e-09, No Iterations 51
time step continuity errors : sum local = 3.4039067e-10, global = 1.0289245e-11, cumulative = 7.3346169e-09
DILUPBiCGStab:  Solving for omega, Initial residual = 3.8280813e-07, Final residual = 2.4033879e-12, No Iterations 3
DILUPBiCGStab:  Solving for k, Initial residual = 3.7889421e-07, Final residual = 4.1744854e-12, No Iterations 3
ExecutionTime = 45.157017 s  ClockTime = 45 s



volFieldValue mindomain_scalar write:
    min() of p = -0.00031277144 at location (1.9686737 0.0004006648 0.5) in cell 99
    min() of k = 7.7372895e-07 at location (1.9686737 0.91041837 0.5) in cell 7479
    min() of omega = 5.5607404 at location (1.9686737 0.91041837 0.5) in cell 7479
    min() of nut = 2.8364445e-08 at location (0.011404732 0.0004006648 0.5) in cell 3

volFieldValue mindomain_vector write:
    minMag() of U = 0.54341082 at location (1.9686737 0.0004006648 0.5) in cell 99

volFieldValue maxdomain_scalar write:
    max() of p = 0.0087283412 at location (0.0015663151 0.0004006648 0.5) in cell 0
    max() of k = 0.0076235866 at location (0.046893339 0.0004006648 0.5) in cell 12
    max() of omega = 970.40986 at location (0.046893339 0.0004006648 0.5) in cell 12
    max() of nut = 8.0060545e-05 at location (1.9686737 0.011019047 0.5) in cell 1199

volFieldValue maxdomain_vector write:
    maxMag() of U = 1.0038916 at location (1.9686737 0.10223954 0.5) in cell 5779

yPlus yplus_stats write:
    patch bottom y+ : min = 69.737068, max = 115.85276, average = 82.863508

Time = 1992s

DILUPBiCGStab:  Solving for Ux, Initial residual = 0.00024627515, Final residual = 4.6205681e-09, No Iterations 3
DILUPBiCGStab:  Solving for Uy, Initial residual = 0.0034732552, Final residual = 2.2569332e-09, No Iterations 3
DICPCG:  Solving for p, Initial residual = 0.0010644664, Final residual = 8.6430453e-06, No Iterations 68
DICPCG:  Solving for p, Initial residual = 8.6098627e-06, Final residual = 8.062255e-08, No Iterations 62
DICPCG:  Solving for p, Initial residual = 8.0622017e-08, Final residual = 9.1586274e-09, No Iterations 53
time step continuity errors : sum local = 3.9811078e-10, global = -4.2178195e-11, cumulative = 7.2924387e-09
DILUPBiCGStab:  Solving for omega, Initial residual = 3.4682629e-07, Final residual = 2.1759643e-12, No Iterations 3
DILUPBiCGStab:  Solving for k, Initial residual = 3.5105491e-07, Final residual = 3.3010946e-12, No Iterations 3
ExecutionTime = 45.186623 s  ClockTime = 45 s



volFieldValue mindomain_scalar write:
    min() of p = -0.00031275404 at location (1.9686737 0.0004006648 0.5) in cell 99
    min() of k = 7.737308e-07 at location (1.9686737 0.91041837 0.5) in cell 7479
    min() of omega = 5.5607551 at location (1.9686737 0.91041837 0.5) in cell 7479
    min() of nut = 2.8364704e-08 at location (0.011404732 0.0004006648 0.5) in cell 3

volFieldValue mindomain_vector write:
    minMag() of U = 0.54341101 at location (1.9686737 0.0004006648 0.5) in cell 99

volFieldValue maxdomain_scalar write:
    max() of p = 0.0087499929 at location (0.0015663151 0.0004006648 0.5) in cell 0
    max() of k = 0.0076235779 at location (0.046893339 0.0004006648 0.5) in cell 12
    max() of omega = 970.40717 at location (0.046893339 0.0004006648 0.5) in cell 12
    max() of nut = 8.0060282e-05 at location (1.9686737 0.011019047 0.5) in cell 1199

volFieldValue maxdomain_vector write:
    maxMag() of U = 1.0038928 at location (1.9686737 0.10223954 0.5) in cell 5779

yPlus yplus_stats write:
    patch bottom y+ : min = 69.737089, max = 115.85267, average = 82.86353

Time = 1993s

DILUPBiCGStab:  Solving for Ux, Initial residual = 0.00019316621, Final residual = 3.4866471e-09, No Iterations 3
DILUPBiCGStab:  Solving for Uy, Initial residual = 0.0027018566, Final residual = 2.3564553e-09, No Iterations 3
DICPCG:  Solving for p, Initial residual = 0.00093015276, Final residual = 8.8733943e-06, No Iterations 69
DICPCG:  Solving for p, Initial residual = 8.8494434e-06, Final residual = 8.7629384e-08, No Iterations 50
DICPCG:  Solving for p, Initial residual = 8.7629014e-08, Final residual = 8.8018821e-09, No Iterations 52
time step continuity errors : sum local = 3.8366462e-10, global = -2.6020997e-11, cumulative = 7.2664177e-09
DILUPBiCGStab:  Solving for omega, Initial residual = 3.0750514e-07, Final residual = 1.9295167e-12, No Iterations 3
DILUPBiCGStab:  Solving for k, Initial residual = 3.1825077e-07, Final residual = 2.4892803e-12, No Iterations 3
ExecutionTime = 45.214016 s  ClockTime = 45 s



volFieldValue mindomain_scalar write:
    min() of p = -0.00031283309 at location (1.9686737 0.0004006648 0.5) in cell 99
    min() of k = 7.7373294e-07 at location (1.9686737 0.91041837 0.5) in cell 7479
    min() of omega = 5.5607716 at location (1.9686737 0.91041837 0.5) in cell 7479
    min() of nut = 2.8364968e-08 at location (0.011404732 0.0004006648 0.5) in cell 3

volFieldValue mindomain_vector write:
    minMag() of U = 0.54341124 at location (1.9686737 0.0004006648 0.5) in cell 99

volFieldValue maxdomain_scalar write:
    max() of p = 0.0087645543 at location (0.0015663151 0.0004006648 0.5) in cell 0
    max() of k = 0.0076235948 at location (0.046893339 0.0004006648 0.5) in cell 12
    max() of omega = 970.40662 at location (0.046893339 0.0004006648 0.5) in cell 12
    max() of nut = 8.0060011e-05 at location (1.9686737 0.011019047 0.5) in cell 1199

volFieldValue maxdomain_vector write:
    maxMag() of U = 1.0038925 at location (1.9686737 0.10223954 0.5) in cell 5779

yPlus yplus_stats write:
    patch bottom y+ : min = 69.737115, max = 115.85281, average = 82.863615

Time = 1994s

DILUPBiCGStab:  Solving for Ux, Initial residual = 0.00016531986, Final residual = 2.5248462e-09, No Iterations 3
DILUPBiCGStab:  Solving for Uy, Initial residual = 0.0022573851, Final residual = 4.1234815e-09, No Iterations 3
DICPCG:  Solving for p, Initial residual = 0.00085131326, Final residual = 7.8424381e-06, No Iterations 61
DICPCG:  Solving for p, Initial residual = 7.8511429e-06, Final residual = 6.0537019e-08, No Iterations 63
DICPCG:  Solving for p, Initial residual = 6.0537491e-08, Final residual = 9.9880576e-09, No Iterations 25
time step continuity errors : sum local = 4.3490729e-10, global = 5.8957927e-11, cumulative = 7.3253756e-09
DILUPBiCGStab:  Solving for omega, Initial residual = 2.7094094e-07, Final residual = 2.2038215e-12, No Iterations 3
DILUPBiCGStab:  Solving for k, Initial residual = 3.0445123e-07, Final residual = 2.9380767e-12, No Iterations 3
ExecutionTime = 45.234981 s  ClockTime = 45 s



volFieldValue mindomain_scalar write:
    min() of p = -0.00031306555 at location (1.9686737 0.0004006648 0.5) in cell 99
    min() of k = 7.7373482e-07 at location (1.9686737 0.91041837 0.5) in cell 7479
    min() of omega = 5.560786 at location (1.9686737 0.91041837 0.5) in cell 7479
    min() of nut = 2.8365241e-08 at location (0.011404732 0.0004006648 0.5) in cell 3

volFieldValue mindomain_vector write:
    minMag() of U = 0.5434115 at location (1.9686737 0.0004006648 0.5) in cell 99

volFieldValue maxdomain_scalar write:
    max() of p = 0.008762166 at location (0.0015663151 0.0004006648 0.5) in cell 0
    max() of k = 0.0076236258 at location (0.046893339 0.0004006648 0.5) in cell 12
    max() of omega = 970.4077 at location (0.046893339 0.0004006648 0.5) in cell 12
    max() of nut = 8.0059791e-05 at location (1.9686737 0.011019047 0.5) in cell 1199

volFieldValue maxdomain_vector write:
    maxMag() of U = 1.0038891 at location (1.9686737 0.10223954 0.5) in cell 5779

yPlus yplus_stats write:
    patch bottom y+ : min = 69.737143, max = 115.8532, average = 82.863685

Time = 1995s

DILUPBiCGStab:  Solving for Ux, Initial residual = 0.00017543646, Final residual = 2.1578823e-09, No Iterations 3
DILUPBiCGStab:  Solving for Uy, Initial residual = 0.0024858806, Final residual = 2.2361143e-09, No Iterations 3
DICPCG:  Solving for p, Initial residual = 0.00087845329, Final residual = 7.9067791e-06, No Iterations 63
DICPCG:  Solving for p, Initial residual = 7.9200412e-06, Final residual = 6.257441e-08, No Iterations 69
DICPCG:  Solving for p, Initial residual = 6.2575445e-08, Final residual = 9.1537716e-09, No Iterations 16
time step continuity errors : sum local = 3.9793098e-10, global = 5.255679e-11, cumulative = 7.3779324e-09
DILUPBiCGStab:  Solving for omega, Initial residual = 2.3207442e-07, Final residual = 1.7174047e-12, No Iterations 3
DILUPBiCGStab:  Solving for k, Initial residual = 3.279321e-07, Final residual = 2.5840857e-12, No Iterations 3
ExecutionTime = 45.28869 s  ClockTime = 45 s



volFieldValue mindomain_scalar write:
    min() of p = -0.00031319961 at location (1.9686737 0.0004006648 0.5) in cell 99
    min() of k = 7.7373604e-07 at location (1.9686737 0.91041837 0.5) in cell 7479
    min() of omega = 5.5607952 at location (1.9686737 0.91041837 0.5) in cell 7479
    min() of nut = 2.8365442e-08 at location (0.011404732 0.0004006648 0.5) in cell 3

volFieldValue mindomain_vector write:
    minMag() of U = 0.54341149 at location (1.9686737 0.0004006648 0.5) in cell 99

volFieldValue maxdomain_scalar write:
    max() of p = 0.0087562942 at location (0.0015663151 0.0004006648 0.5) in cell 0
    max() of k = 0.0076236634 at location (0.046893339 0.0004006648 0.5) in cell 12
    max() of omega = 970.40967 at location (0.046893339 0.0004006648 0.5) in cell 12
    max() of nut = 8.0059743e-05 at location (1.9686737 0.011019047 0.5) in cell 1199

volFieldValue maxdomain_vector write:
    maxMag() of U = 1.0038837 at location (1.9686737 0.10223954 0.5) in cell 5779

yPlus yplus_stats write:
    patch bottom y+ : min = 69.737142, max = 115.85363, average = 82.863752

Time = 1996s

DILUPBiCGStab:  Solving for Ux, Initial residual = 0.00019797783, Final residual = 1.7944965e-09, No Iterations 3
DILUPBiCGStab:  Solving for Uy, Initial residual = 0.0027328195, Final residual = 1.9175402e-09, No Iterations 3
DICPCG:  Solving for p, Initial residual = 0.00094792787, Final residual = 8.588462e-06, No Iterations 62
DICPCG:  Solving for p, Initial residual = 8.5941879e-06, Final residual = 8.466511e-08, No Iterations 66
DICPCG:  Solving for p, Initial residual = 8.4667329e-08, Final residual = 9.1058293e-09, No Iterations 32
time step continuity errors : sum local = 3.9559822e-10, global = 5.9816056e-11, cumulative = 7.4377485e-09
DILUPBiCGStab:  Solving for omega, Initial residual = 2.0146359e-07, Final residual = 1.332529e-12, No Iterations 3
DILUPBiCGStab:  Solving for k, Initial residual = 3.3290493e-07, Final residual = 1.8626086e-12, No Iterations 3
ExecutionTime = 45.321706 s  ClockTime = 45 s



volFieldValue mindomain_scalar write:
    min() of p = -0.00031318632 at location (1.9686737 0.0004006648 0.5) in cell 99
    min() of k = 7.7373645e-07 at location (1.9686737 0.91041837 0.5) in cell 7479
    min() of omega = 5.5607979 at location (1.9686737 0.91041837 0.5) in cell 7479
    min() of nut = 2.8365573e-08 at location (0.011404732 0.0004006648 0.5) in cell 3

volFieldValue mindomain_vector write:
    minMag() of U = 0.54341132 at location (1.9686737 0.0004006648 0.5) in cell 99

volFieldValue maxdomain_scalar write:
    max() of p = 0.0087532628 at location (0.0015663151 0.0004006648 0.5) in cell 0
    max() of k = 0.0076237026 at location (0.046893339 0.0004006648 0.5) in cell 12
    max() of omega = 970.41206 at location (0.046893339 0.0004006648 0.5) in cell 12
    max() of nut = 8.0059901e-05 at location (1.9686737 0.011019047 0.5) in cell 1199

volFieldValue maxdomain_vector write:
    maxMag() of U = 1.0038791 at location (1.9686737 0.10223954 0.5) in cell 5779

yPlus yplus_stats write:
    patch bottom y+ : min = 69.737124, max = 115.85407, average = 82.863837

Time = 1997s

DILUPBiCGStab:  Solving for Ux, Initial residual = 0.0002141633, Final residual = 2.1132253e-09, No Iterations 3
DILUPBiCGStab:  Solving for Uy, Initial residual = 0.0028613912, Final residual = 2.1404405e-09, No Iterations 3
DICPCG:  Solving for p, Initial residual = 0.0010053241, Final residual = 1.0053073e-05, No Iterations 37
DICPCG:  Solving for p, Initial residual = 1.0051359e-05, Final residual = 8.9687358e-08, No Iterations 75
DICPCG:  Solving for p, Initial residual = 8.9655771e-08, Final residual = 9.030394e-09, No Iterations 22
time step continuity errors : sum local = 3.9254709e-10, global = 2.6546716e-11, cumulative = 7.4642952e-09
DILUPBiCGStab:  Solving for omega, Initial residual = 2.0197443e-07, Final residual = 1.2669984e-12, No Iterations 3
DILUPBiCGStab:  Solving for k, Initial residual = 3.0656465e-07, Final residual = 1.5771907e-12, No Iterations 3
ExecutionTime = 45.349699 s  ClockTime = 45 s



volFieldValue mindomain_scalar write:
    min() of p = -0.00031308786 at location (1.9686737 0.0004006648 0.5) in cell 99
    min() of k = 7.7373612e-07 at location (1.9686737 0.91041837 0.5) in cell 7479
    min() of omega = 5.560795 at location (1.9686737 0.91041837 0.5) in cell 7479
    min() of nut = 2.8365617e-08 at location (0.011404732 0.0004006648 0.5) in cell 3

volFieldValue mindomain_vector write:
    minMag() of U = 0.54341111 at location (1.9686737 0.0004006648 0.5) in cell 99

volFieldValue maxdomain_scalar write:
    max() of p = 0.0087543398 at location (0.0015663151 0.0004006648 0.5) in cell 0
    max() of k = 0.0076237402 at location (0.046893339 0.0004006648 0.5) in cell 12
    max() of omega = 970.41456 at location (0.046893339 0.0004006648 0.5) in cell 12
    max() of nut = 8.0060217e-05 at location (1.9686737 0.011019047 0.5) in cell 1199

volFieldValue maxdomain_vector write:
    maxMag() of U = 1.0038766 at location (1.9686737 0.10223954 0.5) in cell 5779

yPlus yplus_stats write:
    patch bottom y+ : min = 69.737101, max = 115.85445, average = 82.863948

Time = 1998s

DILUPBiCGStab:  Solving for Ux, Initial residual = 0.00024215997, Final residual = 2.4454876e-09, No Iterations 3
DILUPBiCGStab:  Solving for Uy, Initial residual = 0.0031317778, Final residual = 7.8945935e-09, No Iterations 3
DICPCG:  Solving for p, Initial residual = 0.0010479878, Final residual = 8.5751077e-06, No Iterations 53
DICPCG:  Solving for p, Initial residual = 8.5658104e-06, Final residual = 6.2736807e-08, No Iterations 73
DICPCG:  Solving for p, Initial residual = 6.2734521e-08, Final residual = 8.9199108e-09, No Iterations 8
time step continuity errors : sum local = 3.8820485e-10, global = -3.7276116e-11, cumulative = 7.4270191e-09
DILUPBiCGStab:  Solving for omega, Initial residual = 2.2958474e-07, Final residual = 1.6155439e-12, No Iterations 3
DILUPBiCGStab:  Solving for k, Initial residual = 2.9597374e-07, Final residual = 1.8162934e-12, No Iterations 3
ExecutionTime = 45.377137 s  ClockTime = 45 s



volFieldValue mindomain_scalar write:
    min() of p = -0.00031299425 at location (1.9686737 0.0004006648 0.5) in cell 99
    min() of k = 7.7373523e-07 at location (1.9686737 0.91041837 0.5) in cell 7479
    min() of omega = 5.5607878 at location (1.9686737 0.91041837 0.5) in cell 7479
    min() of nut = 2.8365598e-08 at location (0.011404732 0.0004006648 0.5) in cell 3

volFieldValue mindomain_vector write:
    minMag() of U = 0.54341098 at location (1.9686737 0.0004006648 0.5) in cell 99

volFieldValue maxdomain_scalar write:
    max() of p = 0.0087578066 at location (0.0015663151 0.0004006648 0.5) in cell 0
    max() of k = 0.0076237745 at location (0.046893339 0.0004006648 0.5) in cell 12
    max() of omega = 970.41695 at location (0.046893339 0.0004006648 0.5) in cell 12
    max() of nut = 8.0060591e-05 at location (1.9686737 0.011019047 0.5) in cell 1199

volFieldValue maxdomain_vector write:
    maxMag() of U = 1.0038762 at location (1.9686737 0.10223954 0.5) in cell 5779

yPlus yplus_stats write:
    patch bottom y+ : min = 69.737086, max = 115.85476, average = 82.864084

Time = 1999s

DILUPBiCGStab:  Solving for Ux, Initial residual = 0.00027687355, Final residual = 3.3724169e-09, No Iterations 3
DILUPBiCGStab:  Solving for Uy, Initial residual = 0.003361443, Final residual = 4.0500458e-09, No Iterations 3
DICPCG:  Solving for p, Initial residual = 0.0011436411, Final residual = 1.0197315e-05, No Iterations 52
DICPCG:  Solving for p, Initial residual = 1.0185589e-05, Final residual = 9.7931589e-08, No Iterations 71
DICPCG:  Solving for p, Initial residual = 9.7927384e-08, Final residual = 7.6216381e-09, No Iterations 17
time step continuity errors : sum local = 3.3211823e-10, global = -2.415093e-11, cumulative = 7.4028682e-09
DILUPBiCGStab:  Solving for omega, Initial residual = 2.6075407e-07, Final residual = 2.1855797e-12, No Iterations 3
DILUPBiCGStab:  Solving for k, Initial residual = 3.0617273e-07, Final residual = 2.5729315e-12, No Iterations 3
ExecutionTime = 45.404369 s  ClockTime = 45 s



volFieldValue mindomain_scalar write:
    min() of p = -0.00031294285 at location (1.9686737 0.0004006648 0.5) in cell 99
    min() of k = 7.7373394e-07 at location (1.9686737 0.91041837 0.5) in cell 7479
    min() of omega = 5.5607775 at location (1.9686737 0.91041837 0.5) in cell 7479
    min() of nut = 2.8365527e-08 at location (0.011404732 0.0004006648 0.5) in cell 3

volFieldValue mindomain_vector write:
    minMag() of U = 0.54341095 at location (1.9686737 0.0004006648 0.5) in cell 99

volFieldValue maxdomain_scalar write:
    max() of p = 0.0087621583 at location (0.0015663151 0.0004006648 0.5) in cell 0
    max() of k = 0.0076238046 at location (0.046893339 0.0004006648 0.5) in cell 12
    max() of omega = 970.41913 at location (0.046893339 0.0004006648 0.5) in cell 12
    max() of nut = 8.0060926e-05 at location (1.9686737 0.011019047 0.5) in cell 1199

volFieldValue maxdomain_vector write:
    maxMag() of U = 1.0038772 at location (1.9686737 0.10223954 0.5) in cell 5779

yPlus yplus_stats write:
    patch bottom y+ : min = 69.737083, max = 115.855, average = 82.864237

Time = 2000s

DILUPBiCGStab:  Solving for Ux, Initial residual = 0.00030491991, Final residual = 4.3163777e-09, No Iterations 3
DILUPBiCGStab:  Solving for Uy, Initial residual = 0.0036075853, Final residual = 3.6789932e-09, No Iterations 3
DICPCG:  Solving for p, Initial residual = 0.0012188213, Final residual = 1.1290587e-05, No Iterations 36
DICPCG:  Solving for p, Initial residual = 1.1288845e-05, Final residual = 1.125637e-07, No Iterations 72
DICPCG:  Solving for p, Initial residual = 1.1252638e-07, Final residual = 8.7468852e-09, No Iterations 20
time step continuity errors : sum local = 3.813497e-10, global = 9.6938161e-12, cumulative = 7.412562e-09
DILUPBiCGStab:  Solving for omega, Initial residual = 2.9159197e-07, Final residual = 2.4373344e-12, No Iterations 3
DILUPBiCGStab:  Solving for k, Initial residual = 3.2260244e-07, Final residual = 3.4885703e-12, No Iterations 3
ExecutionTime = 45.441548 s  ClockTime = 45 s



volFieldValue mindomain_scalar write:
    min() of p = -0.00031293093 at location (1.9686737 0.0004006648 0.5) in cell 99
    min() of k = 7.7373242e-07 at location (1.9686737 0.91041837 0.5) in cell 7479
    min() of omega = 5.5607654 at location (1.9686737 0.91041837 0.5) in cell 7479
    min() of nut = 2.8365432e-08 at location (0.011404732 0.0004006648 0.5) in cell 3

volFieldValue mindomain_vector write:
    minMag() of U = 0.54341099 at location (1.9686737 0.0004006648 0.5) in cell 99

volFieldValue maxdomain_scalar write:
    max() of p = 0.0087642283 at location (0.0015663151 0.0004006648 0.5) in cell 0
    max() of k = 0.0076238298 at location (0.046893339 0.0004006648 0.5) in cell 12
    max() of omega = 970.42105 at location (0.046893339 0.0004006648 0.5) in cell 12
    max() of nut = 8.0061168e-05 at location (1.9686737 0.011019047 0.5) in cell 1199

volFieldValue maxdomain_vector write:
    maxMag() of U = 1.0038788 at location (1.9686737 0.10223954 0.5) in cell 5779

yPlus yplus_stats write:
    patch bottom y+ : min = 69.737087, max = 115.85516, average = 82.864389

End

